Using: /cad/synopsys/Hspice/G-2012.06/hspice/linux/hspice gummel_pmos.sp
 ****** HSPICE -- G-2012.06 32-BIT (May 27 2012) RHEL32 ******                  
  Copyright (C) 2012 Synopsys, Inc. All Rights Reserved.                        
  Unpublished-rights reserved under US copyright laws.
  This program is protected by law and is subject to the
  terms and conditions of the license agreement from Synopsys.
  Use of this program is your acceptance to be bound by the
  license agreement. HSPICE is the trademark of Synopsys, Inc.
  Input File: gummel_pmos.sp                                                    
  Command line options: gummel_pmos.sp
 lic:  
 lic: FLEXlm: v10.8 
 lic: USER:   agarwalh             HOSTNAME: xcel1.vlsi.iitk.ac.in 
 lic: HOSTID: 0008a1953eea         PID:      18437 
 lic: Using FLEXlm license file: 
 lic: 27000@xcel0 
 lic: Checkout 1 hspice 
 lic: License/Maintenance for hspice will expire on 15-jun-2014/2013.03 
 lic: 1(in_use)/5(total) FLOATING license(s) on SERVER xcel0 
 lic:   
 Init: read install configuration file: /cad/synopsys/Hspice/G-2012.06/hspice/meta.cfg


 --------------------------------------------------------
|                                                        |
|          Synopsys Unified Verilog-A (pVA v2.0)         |
|                                                        |
|           Machine Name: xcel1.vlsi.iitk.ac.in          |
| Copyright (c) 2011 Synopsys Inc., All Rights Reserved. |
|                                                        |
 --------------------------------------------------------

libepva built by pvamgr synmake_pva_build  on Tue May  1 20:03:16 PDT 2012
HSP_HOME:   /cad/synopsys/Hspice/G-2012.06/hspice
HSP_ARCH:   linux
HSP_GCC :   /cad/synopsys/Hspice/G-2012.06/hspice/GNU/amd64/gcc-4.5.2-static/bin/gcc -m32 
HSP_GCC_VER:   4.5.2
Working-Dir: /users/phd/agarwalh/synopsys_designs/BSIM6/Release_test/bsim6.1.1/bsim6.1.1
Args:        -p hsp -t spi -f gummel_pmos.pvadir/pvaHDL.lis -o gummel_pmos.pvadir 


Begin of pVA compiling on Wed Mar 19 15:39:03 2014

Parsing './bsim6.va'
Parsing include file '/cad/synopsys/Hspice/G-2012.06/hspice/include/constants.vams'
Parsing include file '/cad/synopsys/Hspice/G-2012.06/hspice/include/disciplines.vams'

End of pVA compiling on Wed Mar 19 15:39:04 2014


End of build pVA DB on Wed Mar 19 15:39:04 2014

*pvaI* Module (bsim6): 4 unexpanded port, 0 init, 2370 behav, 64 contrib, 43/2409 expr(s)
*pvaI* Resizing DB size for v count = 1
*pvaI*        Has DIS (ST SB), 3 afCount
*pvaI*        0 const-G and 0 const-C, Has switch branch.
*pvaI* Module (bsim6): generated 7 flow node(s) during compilation.

End of pVA genC on Wed Mar 19 15:39:07 2014

*pvaI* #### Total 316 line-size(s), 43 expr(s), 64 contr(s), 0 init(s), 2370 behav(s), 4 port(s)

Generating gummel_pmos.pvadir/pvaRTL_linux.so


End of submitting pVA gummel_pmos.pvadir/pvaRTL.mak on Wed Mar 19 15:39:17 2014


End of pVA elaboration on Wed Mar 19 15:39:17 2014

 Loading pVA library gummel_pmos.pvadir/pvaRTL_linux.so...
1****** HSPICE -- G-2012.06 32-BIT (May 27 2012) RHEL32 ******                  
 ******  
 *sample netlist for bsim6

  ******  circuit name directory
 circuit number to circuit name directory
   number circuitname                     definition         multiplier
        0 main circuit
        1 x1.                             bsim6(va)          1.00 
*pvaI* Creating Verilog-A module 'bsim6' for X1
  
      
 *****************************************************************
 ******  option summary
 ******
 runlvl  = 3         bypass  = 2         
  Opening plot unit= 15
 file=gummel_pmos.pa0                                                          

 ******  
 *sample netlist for bsim6

  ******  dc transfer curves tnom=  25.000 temp=  25.000 *****

   *** source        0:vgate =   -1.0000        ***

x

        volt    param        param        param        param      
                    ids          gx           gx2          gx3    
   -0.10000    -2.349e-05      0.           0.           0.       
 -9.9000e-02   -2.326e-05   -2.349e-02      0.           0.       
 -9.8000e-02   -2.303e-05    2.318e-04    -23.4889       0.       
 -9.7000e-02   -2.279e-05    2.319e-04     23.7207    -2.348e+04  
 -9.6000e-02   -2.256e-05    2.319e-04    8.174e-05    4.721e+04  
 -9.5000e-02   -2.233e-05    2.320e-04    8.120e-05   -2.372e+04  
 -9.4000e-02   -2.210e-05    2.321e-04    8.066e-05   -5.400e-04  
 -9.3000e-02   -2.186e-05    2.322e-04    8.021e-05   -5.400e-04  
 -9.2000e-02   -2.163e-05    2.323e-04    7.962e-05   -4.547e-04  
 -9.1000e-02   -2.140e-05    2.323e-04    7.918e-05   -5.826e-04  
 -9.0000e-02   -2.117e-05    2.324e-04    7.863e-05   -4.405e-04  
 -8.9000e-02   -2.093e-05    2.325e-04    7.812e-05   -5.542e-04  
 -8.8000e-02   -2.070e-05    2.326e-04    7.759e-05   -5.116e-04  
 -8.7000e-02   -2.047e-05    2.327e-04    7.709e-05   -5.258e-04  
 -8.6000e-02   -2.024e-05    2.327e-04    7.657e-05   -4.974e-04  
 -8.5000e-02   -2.000e-05    2.328e-04    7.607e-05   -5.258e-04  
 -8.4000e-02   -1.977e-05    2.329e-04    7.553e-05   -4.974e-04  
 -8.3000e-02   -1.954e-05    2.330e-04    7.500e-05   -5.400e-04  
 -8.2000e-02   -1.930e-05    2.330e-04    7.448e-05   -5.258e-04  
 -8.1000e-02   -1.907e-05    2.331e-04    7.398e-05   -5.258e-04  
 -8.0000e-02   -1.884e-05    2.332e-04    7.346e-05   -4.974e-04  
 -7.9000e-02   -1.861e-05    2.332e-04    7.289e-05   -5.258e-04  
 -7.8000e-02   -1.837e-05    2.333e-04    7.242e-05   -5.684e-04  
 -7.7000e-02   -1.814e-05    2.334e-04    7.186e-05   -4.690e-04  
 -7.6000e-02   -1.790e-05    2.335e-04    7.137e-05   -5.542e-04  
 -7.5000e-02   -1.767e-05    2.335e-04    7.076e-05   -4.974e-04  
 -7.4000e-02   -1.744e-05    2.336e-04    7.030e-05   -6.111e-04  
 -7.3000e-02   -1.720e-05    2.337e-04    6.976e-05   -4.547e-04  
 -7.2000e-02   -1.697e-05    2.337e-04    6.916e-05   -5.400e-04  
 -7.1000e-02   -1.674e-05    2.338e-04    6.868e-05   -5.969e-04  
 -7.0000e-02   -1.650e-05    2.339e-04    6.810e-05   -4.832e-04  
 -6.9000e-02   -1.627e-05    2.339e-04    6.762e-05   -5.826e-04  
 -6.8000e-02   -1.603e-05    2.340e-04    6.702e-05   -4.832e-04  
 -6.7000e-02   -1.580e-05    2.341e-04    6.646e-05   -5.969e-04  
 -6.6000e-02   -1.557e-05    2.341e-04    6.594e-05   -5.542e-04  
 -6.5000e-02   -1.533e-05    2.342e-04    6.538e-05   -5.258e-04  
 -6.4000e-02   -1.510e-05    2.343e-04    6.483e-05   -5.542e-04  
 -6.3000e-02   -1.486e-05    2.343e-04    6.425e-05   -5.542e-04  
 -6.2000e-02   -1.463e-05    2.344e-04    6.369e-05   -5.826e-04  
 -6.1000e-02   -1.439e-05    2.345e-04    6.312e-05   -5.613e-04  
 -6.0000e-02   -1.416e-05    2.345e-04    6.256e-05   -5.613e-04  
 -5.9000e-02   -1.392e-05    2.346e-04    6.195e-05   -5.684e-04  
 -5.8000e-02   -1.369e-05    2.346e-04    6.141e-05   -6.040e-04  
 -5.7000e-02   -1.345e-05    2.347e-04    6.080e-05   -5.471e-04  
 -5.6000e-02   -1.322e-05    2.348e-04    6.020e-05   -6.040e-04  
 -5.5000e-02   -1.299e-05    2.348e-04    5.961e-05   -5.969e-04  
 -5.4000e-02   -1.275e-05    2.349e-04    5.900e-05   -5.969e-04  
 -5.3000e-02   -1.252e-05    2.349e-04    5.841e-05   -6.040e-04  
 -5.2000e-02   -1.228e-05    2.350e-04    5.778e-05   -5.898e-04  
 -5.1000e-02   -1.205e-05    2.350e-04    5.717e-05   -6.324e-04  
 -5.0000e-02   -1.181e-05    2.351e-04    5.653e-05   -6.111e-04  
 -4.9000e-02   -1.157e-05    2.352e-04    5.590e-05   -6.395e-04  
 -4.8000e-02   -1.134e-05    2.352e-04    5.528e-05   -6.324e-04  
 -4.7000e-02   -1.110e-05    2.353e-04    5.462e-05   -6.182e-04  
 -4.6000e-02   -1.087e-05    2.353e-04    5.396e-05   -6.608e-04  
 -4.5000e-02   -1.063e-05    2.354e-04    5.331e-05   -6.608e-04  
 -4.4000e-02   -1.040e-05    2.354e-04    5.263e-05   -6.466e-04  
 -4.3000e-02   -1.016e-05    2.355e-04    5.198e-05   -6.821e-04  
 -4.2000e-02   -9.927e-06    2.355e-04    5.129e-05   -6.466e-04  
 -4.1000e-02   -9.691e-06    2.356e-04    5.061e-05   -6.892e-04  
 -4.0000e-02   -9.456e-06    2.356e-04    4.993e-05   -6.821e-04  
 -3.9000e-02   -9.220e-06    2.357e-04    4.924e-05   -6.821e-04  
 -3.8000e-02   -8.984e-06    2.357e-04    4.854e-05   -6.892e-04  
 -3.7000e-02   -8.748e-06    2.358e-04    4.787e-05   -6.963e-04  
 -3.6000e-02   -8.512e-06    2.358e-04    4.717e-05   -6.750e-04  
 -3.5000e-02   -8.276e-06    2.359e-04    4.648e-05   -7.034e-04  
 -3.4000e-02   -8.040e-06    2.359e-04    4.576e-05   -6.821e-04  
 -3.3000e-02   -7.804e-06    2.360e-04    4.511e-05   -7.248e-04  
 -3.2000e-02   -7.568e-06    2.360e-04    4.438e-05   -6.537e-04  
 -3.1000e-02   -7.332e-06    2.360e-04    4.371e-05   -7.248e-04  
 -3.0000e-02   -7.096e-06    2.361e-04    4.300e-05   -6.750e-04  
 -2.9000e-02   -6.860e-06    2.361e-04    4.227e-05   -7.034e-04  
 -2.8000e-02   -6.624e-06    2.362e-04    4.155e-05   -7.283e-04  
 -2.7000e-02   -6.388e-06    2.362e-04    4.080e-05   -7.248e-04  
 -2.6000e-02   -6.151e-06    2.362e-04    4.000e-05   -7.461e-04  
 -2.5000e-02   -5.915e-06    2.363e-04    3.917e-05   -7.994e-04  
 -2.4000e-02   -5.679e-06    2.363e-04    3.827e-05   -8.349e-04  
 -2.3000e-02   -5.442e-06    2.364e-04    3.729e-05   -8.953e-04  
 -2.2000e-02   -5.206e-06    2.364e-04    3.621e-05   -9.877e-04  
 -2.1000e-02   -4.969e-06    2.364e-04    3.502e-05   -1.080e-03  
 -2.0000e-02   -4.733e-06    2.365e-04    3.369e-05   -1.183e-03  
 -1.9000e-02   -4.496e-06    2.365e-04    3.223e-05   -1.329e-03  
 -1.8000e-02   -4.260e-06    2.365e-04    3.060e-05   -1.460e-03  
 -1.7000e-02   -4.023e-06    2.365e-04    2.880e-05   -1.638e-03  
 -1.6000e-02   -3.787e-06    2.366e-04    2.685e-05   -1.798e-03  
 -1.5000e-02   -3.550e-06    2.366e-04    2.471e-05   -1.950e-03  
 -1.4000e-02   -3.313e-06    2.366e-04    2.244e-05   -2.135e-03  
 -1.3000e-02   -3.077e-06    2.366e-04    2.005e-05   -2.277e-03  
 -1.2000e-02   -2.840e-06    2.366e-04    1.755e-05   -2.386e-03  
 -1.1000e-02   -2.603e-06    2.367e-04    1.503e-05   -2.496e-03  
 -1.0000e-02   -2.367e-06    2.367e-04    1.249e-05   -2.528e-03  
 -9.0000e-03   -2.130e-06    2.367e-04    1.003e-05   -2.533e-03  
 -8.0000e-03   -1.893e-06    2.367e-04    7.681e-06   -2.464e-03  
 -7.0000e-03   -1.657e-06    2.367e-04    5.528e-06   -2.348e-03  
 -6.0000e-03   -1.420e-06    2.367e-04    3.598e-06   -2.153e-03  
 -5.0000e-03   -1.183e-06    2.367e-04    1.971e-06   -1.930e-03  
 -4.0000e-03   -9.467e-07    2.367e-04    6.635e-07   -1.627e-03  
 -3.0000e-03   -7.100e-07    2.367e-04   -2.967e-07   -1.307e-03  
 -2.0000e-03   -4.734e-07    2.367e-04   -9.095e-07   -9.601e-04  
 -1.0000e-03   -2.367e-07    2.367e-04   -1.189e-06   -6.128e-04  
    0.         -1.040e-20    2.367e-04   -1.177e-06   -2.793e-04  
  1.0000e-03    2.367e-07    2.367e-04   -9.268e-07    1.177e-05  
  2.0000e-03    4.734e-07    2.367e-04   -5.056e-07    2.502e-04  
  3.0000e-03    7.100e-07    2.367e-04   -2.220e-10    4.212e-04  
  4.0000e-03    9.467e-07    2.367e-04    5.060e-07    5.054e-04  
  5.0000e-03    1.183e-06    2.367e-04    9.270e-07    5.063e-04  
  6.0000e-03    1.420e-06    2.367e-04    1.176e-06    4.210e-04  
  7.0000e-03    1.657e-06    2.367e-04    1.189e-06    2.491e-04  
  8.0000e-03    1.893e-06    2.367e-04    9.095e-07    1.310e-05  
  9.0000e-03    2.130e-06    2.367e-04    2.975e-07   -2.798e-04  
  1.0000e-02    2.367e-06    2.367e-04   -6.652e-07   -6.120e-04  
  1.1000e-02    2.603e-06    2.367e-04   -1.970e-06   -9.628e-04  
  1.2000e-02    2.840e-06    2.367e-04   -3.598e-06   -1.305e-03  
  1.3000e-02    3.077e-06    2.367e-04   -5.528e-06   -1.628e-03  
  1.4000e-02    3.313e-06    2.367e-04   -7.681e-06   -1.930e-03  
  1.5000e-02    3.550e-06    2.366e-04   -1.003e-05   -2.153e-03  
  1.6000e-02    3.787e-06    2.366e-04   -1.250e-05   -2.347e-03  
  1.7000e-02    4.023e-06    2.366e-04   -1.502e-05   -2.471e-03  
  1.8000e-02    4.260e-06    2.366e-04   -1.756e-05   -2.522e-03  
  1.9000e-02    4.496e-06    2.366e-04   -2.005e-05   -2.535e-03  
  2.0000e-02    4.733e-06    2.365e-04   -2.243e-05   -2.494e-03  
  2.1000e-02    4.969e-06    2.365e-04   -2.472e-05   -2.382e-03  
  2.2000e-02    5.206e-06    2.365e-04   -2.684e-05   -2.292e-03  
  2.3000e-02    5.442e-06    2.365e-04   -2.880e-05   -2.114e-03  
  2.4000e-02    5.679e-06    2.364e-04   -3.060e-05   -1.965e-03  
  2.5000e-02    5.915e-06    2.364e-04   -3.223e-05   -1.794e-03  
  2.6000e-02    6.151e-06    2.364e-04   -3.370e-05   -1.634e-03  
  2.7000e-02    6.388e-06    2.363e-04   -3.502e-05   -1.471e-03  
  2.8000e-02    6.624e-06    2.363e-04   -3.621e-05   -1.318e-03  
  2.9000e-02    6.860e-06    2.362e-04   -3.729e-05   -1.187e-03  
  3.0000e-02    7.096e-06    2.362e-04   -3.827e-05   -1.084e-03  
  3.1000e-02    7.332e-06    2.362e-04   -3.917e-05   -9.770e-04  
  3.2000e-02    7.568e-06    2.361e-04   -4.001e-05   -9.059e-04  
  3.3000e-02    7.804e-06    2.361e-04   -4.080e-05   -8.349e-04  
  3.4000e-02    8.040e-06    2.360e-04   -4.154e-05   -7.887e-04  
  3.5000e-02    8.276e-06    2.360e-04   -4.230e-05   -7.425e-04  
  3.6000e-02    8.512e-06    2.360e-04   -4.298e-05   -7.638e-04  
  3.7000e-02    8.748e-06    2.359e-04   -4.371e-05   -6.786e-04  
  3.8000e-02    8.984e-06    2.359e-04   -4.439e-05   -7.248e-04  
  3.9000e-02    9.220e-06    2.358e-04   -4.509e-05   -6.892e-04  
  4.0000e-02    9.456e-06    2.358e-04   -4.578e-05   -6.963e-04  
  4.1000e-02    9.691e-06    2.357e-04   -4.647e-05   -6.892e-04  
  4.2000e-02    9.927e-06    2.357e-04   -4.718e-05   -6.892e-04  
  4.3000e-02    1.016e-05    2.356e-04   -4.785e-05   -7.105e-04  
  4.4000e-02    1.040e-05    2.356e-04   -4.854e-05   -6.679e-04  
  4.5000e-02    1.063e-05    2.355e-04   -4.925e-05   -6.963e-04  
  4.6000e-02    1.087e-05    2.355e-04   -4.993e-05   -7.034e-04  
  4.7000e-02    1.110e-05    2.354e-04   -5.062e-05   -6.821e-04  
  4.8000e-02    1.134e-05    2.354e-04   -5.129e-05   -6.892e-04  
  4.9000e-02    1.157e-05    2.353e-04   -5.198e-05   -6.679e-04  
  5.0000e-02    1.181e-05    2.353e-04   -5.262e-05   -6.963e-04  
  5.1000e-02    1.205e-05    2.352e-04   -5.332e-05   -6.324e-04  
  5.2000e-02    1.228e-05    2.352e-04   -5.397e-05   -7.034e-04  
  5.3000e-02    1.252e-05    2.351e-04   -5.463e-05   -6.537e-04  
  5.4000e-02    1.275e-05    2.350e-04   -5.526e-05   -6.537e-04  
  5.5000e-02    1.299e-05    2.350e-04   -5.591e-05   -6.324e-04  
  5.6000e-02    1.322e-05    2.349e-04   -5.653e-05   -6.466e-04  
  5.7000e-02    1.345e-05    2.349e-04   -5.717e-05   -6.253e-04  
  5.8000e-02    1.369e-05    2.348e-04   -5.779e-05   -6.395e-04  
  5.9000e-02    1.392e-05    2.348e-04   -5.839e-05   -6.182e-04  
  6.0000e-02    1.416e-05    2.347e-04   -5.902e-05   -6.040e-04  
  6.1000e-02    1.439e-05    2.346e-04   -5.961e-05   -6.253e-04  
  6.2000e-02    1.463e-05    2.346e-04   -6.020e-05   -5.969e-04  
  6.3000e-02    1.486e-05    2.345e-04   -6.080e-05   -5.898e-04  
  6.4000e-02    1.510e-05    2.345e-04   -6.138e-05   -5.969e-04  
  6.5000e-02    1.533e-05    2.344e-04   -6.196e-05   -5.826e-04  
  6.6000e-02    1.557e-05    2.343e-04   -6.258e-05   -5.755e-04  
  6.7000e-02    1.580e-05    2.343e-04   -6.309e-05   -6.253e-04  
  6.8000e-02    1.603e-05    2.342e-04   -6.369e-05   -5.045e-04  
  6.9000e-02    1.627e-05    2.341e-04   -6.428e-05   -5.969e-04  
  7.0000e-02    1.650e-05    2.341e-04   -6.482e-05   -5.898e-04  
  7.1000e-02    1.674e-05    2.340e-04   -6.537e-05   -5.400e-04  
  7.2000e-02    1.697e-05    2.339e-04   -6.595e-05   -5.542e-04  
  7.3000e-02    1.720e-05    2.339e-04   -6.648e-05   -5.826e-04  
  7.4000e-02    1.744e-05    2.338e-04   -6.700e-05   -5.258e-04  
  7.5000e-02    1.767e-05    2.337e-04   -6.762e-05   -5.258e-04  
  7.6000e-02    1.790e-05    2.337e-04   -6.808e-05   -6.111e-04  
  7.7000e-02    1.814e-05    2.336e-04   -6.870e-05   -4.690e-04  
  7.8000e-02    1.837e-05    2.335e-04   -6.918e-05   -6.111e-04  
  7.9000e-02    1.861e-05    2.335e-04   -6.975e-05   -4.832e-04  
  8.0000e-02    1.884e-05    2.334e-04   -7.029e-05   -5.684e-04  
  8.1000e-02    1.907e-05    2.333e-04   -7.080e-05   -5.400e-04  
  8.2000e-02    1.930e-05    2.332e-04   -7.132e-05   -5.116e-04  
  8.3000e-02    1.954e-05    2.332e-04   -7.191e-05   -5.258e-04  
  8.4000e-02    1.977e-05    2.331e-04   -7.235e-05   -5.826e-04  
  8.5000e-02    2.000e-05    2.330e-04   -7.294e-05   -4.405e-04  
  8.6000e-02    2.024e-05    2.330e-04   -7.344e-05   -5.969e-04  
  8.7000e-02    2.047e-05    2.329e-04   -7.400e-05   -4.974e-04  
  8.8000e-02    2.070e-05    2.328e-04   -7.444e-05   -5.542e-04  
  8.9000e-02    2.093e-05    2.327e-04   -7.505e-05   -4.405e-04  
  9.0000e-02    2.117e-05    2.327e-04   -7.552e-05   -6.111e-04  
  9.1000e-02    2.140e-05    2.326e-04   -7.607e-05   -4.690e-04  
  9.2000e-02    2.163e-05    2.325e-04   -7.657e-05   -5.542e-04  
  9.3000e-02    2.186e-05    2.324e-04   -7.708e-05   -4.974e-04  
  9.4000e-02    2.210e-05    2.323e-04   -7.761e-05   -5.116e-04  
  9.5000e-02    2.233e-05    2.323e-04   -7.813e-05   -5.258e-04  
  9.6000e-02    2.256e-05    2.322e-04   -7.861e-05   -5.258e-04  
  9.7000e-02    2.279e-05    2.321e-04   -7.915e-05   -4.832e-04  
  9.8000e-02    2.303e-05    2.320e-04   -7.968e-05   -5.400e-04  
  9.9000e-02    2.326e-05    2.319e-04   -8.018e-05   -5.258e-04  
    0.10000     2.349e-05    2.319e-04   -8.066e-05   -4.974e-04  
y
x

        volt    param      
                    gx4    
   -0.10000       0.       
 -9.9000e-02      0.       
 -9.8000e-02      0.       
 -9.7000e-02      0.       
 -9.6000e-02   -2.348e+07  
 -9.5000e-02    7.069e+07  
 -9.4000e-02   -7.093e+07  
 -9.3000e-02    2.372e+07  
 -9.2000e-02      0.       
 -9.1000e-02    8.527e-02  
 -9.0000e-02     -0.1279   
 -8.9000e-02      0.1421   
 -8.8000e-02     -0.1137   
 -8.7000e-02    4.263e-02  
 -8.6000e-02   -1.421e-02  
 -8.5000e-02    2.842e-02  
 -8.4000e-02   -2.842e-02  
 -8.3000e-02    2.842e-02  
 -8.2000e-02   -4.263e-02  
 -8.1000e-02    1.421e-02  
 -8.0000e-02      0.       
 -7.9000e-02    2.842e-02  
 -7.8000e-02   -2.842e-02  
 -7.7000e-02   -4.263e-02  
 -7.6000e-02    9.948e-02  
 -7.5000e-02   -8.527e-02  
 -7.4000e-02    5.684e-02  
 -7.3000e-02     -0.1137   
 -7.2000e-02      0.1563   
 -7.1000e-02   -8.527e-02  
 -7.0000e-02   -5.684e-02  
 -6.9000e-02      0.1137   
 -6.8000e-02   -9.948e-02  
 -6.7000e-02    9.948e-02  
 -6.6000e-02     -0.1137   
 -6.5000e-02    4.263e-02  
 -6.4000e-02    2.842e-02  
 -6.3000e-02   -2.842e-02  
 -6.2000e-02      0.       
 -6.1000e-02   -2.842e-02  
 -6.0000e-02    2.132e-02  
 -5.9000e-02    1.625e-09  
 -5.8000e-02   -7.105e-03  
 -5.7000e-02   -3.553e-02  
 -5.6000e-02    5.684e-02  
 -5.5000e-02   -5.684e-02  
 -5.4000e-02    7.105e-03  
 -5.3000e-02    1.625e-09  
 -5.2000e-02   -7.105e-03  
 -5.1000e-02    1.421e-02  
 -5.0000e-02   -4.263e-02  
 -4.9000e-02    2.132e-02  
 -4.8000e-02   -2.842e-02  
 -4.7000e-02    7.105e-03  
 -4.6000e-02    1.421e-02  
 -4.5000e-02   -4.263e-02  
 -4.4000e-02    1.653e-09  
 -4.3000e-02    1.421e-02  
 -4.2000e-02   -3.553e-02  
 -4.1000e-02    3.553e-02  
 -4.0000e-02   -4.263e-02  
 -3.9000e-02    7.105e-03  
 -3.8000e-02    3.571e-13  
 -3.7000e-02   -7.105e-03  
 -3.6000e-02   -7.105e-03  
 -3.5000e-02    2.132e-02  
 -3.4000e-02   -2.842e-02  
 -3.3000e-02    2.132e-02  
 -3.2000e-02   -4.263e-02  
 -3.1000e-02    7.105e-02  
 -3.0000e-02   -7.105e-02  
 -2.9000e-02    4.974e-02  
 -2.8000e-02   -2.842e-02  
 -2.7000e-02   -2.487e-02  
 -2.6000e-02    3.553e-03  
 -2.5000e-02   -2.132e-02  
 -2.4000e-02   -5.329e-02  
 -2.3000e-02   -3.553e-02  
 -2.2000e-02   -6.040e-02  
 -2.1000e-02   -9.237e-02  
 -2.0000e-02   -9.237e-02  
 -1.9000e-02     -0.1030   
 -1.8000e-02     -0.1457   
 -1.7000e-02     -0.1315   
 -1.6000e-02     -0.1776   
 -1.5000e-02     -0.1599   
 -1.4000e-02     -0.1528   
 -1.3000e-02     -0.1847   
 -1.2000e-02     -0.1421   
 -1.1000e-02     -0.1084   
 -1.0000e-02     -0.1101   
 -9.0000e-03   -3.197e-02  
 -8.0000e-03   -5.329e-03  
 -7.0000e-03    6.928e-02  
 -6.0000e-03      0.1155   
 -5.0000e-03      0.1954   
 -4.0000e-03      0.2229   
 -3.0000e-03      0.3029   
 -2.0000e-03      0.3197   
 -1.0000e-03      0.3473   
    0.            0.3473   
  1.0000e-03      0.3335   
  2.0000e-03      0.2911   
  3.0000e-03      0.2385   
  4.0000e-03      0.1710   
  5.0000e-03    8.415e-02  
  6.0000e-03    8.881e-04  
  7.0000e-03   -8.527e-02  
  8.0000e-03     -0.1719   
  9.0000e-03     -0.2360   
  1.0000e-02     -0.2929   
  1.1000e-02     -0.3322   
  1.2000e-02     -0.3508   
  1.3000e-02     -0.3419   
  1.4000e-02     -0.3233   
  1.5000e-02     -0.3020   
  1.6000e-02     -0.2229   
  1.7000e-02     -0.1936   
  1.8000e-02     -0.1243   
  1.9000e-02   -5.151e-02  
  2.0000e-02   -1.243e-02  
  2.1000e-02    4.086e-02  
  2.2000e-02      0.1119   
  2.3000e-02    9.059e-02  
  2.4000e-02      0.1776   
  2.5000e-02      0.1492   
  2.6000e-02      0.1705   
  2.7000e-02      0.1599   
  2.8000e-02      0.1634   
  2.9000e-02      0.1528   
  3.0000e-02      0.1315   
  3.1000e-02      0.1030   
  3.2000e-02      0.1066   
  3.3000e-02    7.105e-02  
  3.4000e-02    7.105e-02  
  3.5000e-02    4.619e-02  
  3.6000e-02    4.619e-02  
  3.7000e-02   -2.132e-02  
  3.8000e-02    8.527e-02  
  3.9000e-02   -4.619e-02  
  4.0000e-02    3.553e-02  
  4.1000e-02   -7.105e-03  
  4.2000e-02    7.105e-03  
  4.3000e-02      0.       
  4.4000e-02   -2.132e-02  
  4.5000e-02    4.263e-02  
  4.6000e-02   -2.842e-02  
  4.7000e-02   -7.105e-03  
  4.8000e-02    2.132e-02  
  4.9000e-02   -7.105e-03  
  5.0000e-02    2.132e-02  
  5.1000e-02   -2.842e-02  
  5.2000e-02    6.395e-02  
  5.3000e-02   -7.105e-02  
  5.4000e-02    4.974e-02  
  5.5000e-02      0.       
  5.6000e-02    2.132e-02  
  5.7000e-02   -1.421e-02  
  5.8000e-02    2.132e-02  
  5.9000e-02   -1.421e-02  
  6.0000e-02    2.132e-02  
  6.1000e-02    1.421e-02  
  6.2000e-02   -2.132e-02  
  6.3000e-02    2.842e-02  
  6.4000e-02    7.105e-03  
  6.5000e-02   -7.105e-03  
  6.6000e-02    1.421e-02  
  6.7000e-02    7.105e-03  
  6.8000e-02   -4.974e-02  
  6.9000e-02      0.1208   
  7.0000e-02   -9.237e-02  
  7.1000e-02    7.105e-03  
  7.2000e-02    4.974e-02  
  7.3000e-02   -1.421e-02  
  7.4000e-02   -2.842e-02  
  7.5000e-02    5.684e-02  
  7.6000e-02      0.       
  7.7000e-02   -8.527e-02  
  7.8000e-02      0.1421   
  7.9000e-02     -0.1421   
  8.0000e-02      0.1279   
  8.1000e-02   -8.527e-02  
  8.2000e-02    2.842e-02  
  8.3000e-02    2.842e-02  
  8.4000e-02   -1.421e-02  
  8.5000e-02   -5.684e-02  
  8.6000e-02      0.1421   
  8.7000e-02     -0.1563   
  8.8000e-02    9.948e-02  
  8.9000e-02   -5.684e-02  
  9.0000e-02      0.1137   
  9.1000e-02     -0.1705   
  9.2000e-02      0.1421   
  9.3000e-02   -8.527e-02  
  9.4000e-02    5.684e-02  
  9.5000e-02   -1.421e-02  
  9.6000e-02   -1.421e-02  
  9.7000e-02      0.       
  9.8000e-02    4.263e-02  
  9.9000e-02   -5.684e-02  
    0.10000     1.421e-02  
y
-----------------------------------------------
 ******  
 *sample netlist for bsim6

  ******  dc transfer curves tnom=  25.000 temp=  25.000 *****

   *** source        0:vgate =   -0.7000        ***

x

        volt    param        param        param        param      
                    ids          gx           gx2          gx3    
   -0.10000    -1.780e-05   -2.349e-04   -2.319e-03    8.066e-04  
 -9.9000e-02   -1.762e-05   -4.129e-02     -0.4668      -2.2380   
 -9.8000e-02   -1.745e-05    1.738e-04    -41.0509    -464.4333   
 -9.7000e-02   -1.728e-05    1.739e-04     41.4596    -4.058e+04  
 -9.6000e-02   -1.710e-05    1.740e-04    1.073e-04    8.251e+04  
 -9.5000e-02   -1.693e-05    1.741e-04    1.067e-04   -4.145e+04  
 -9.4000e-02   -1.675e-05    1.742e-04    1.060e-04   -5.969e-04  
 -9.3000e-02   -1.658e-05    1.743e-04    1.055e-04   -6.679e-04  
 -9.2000e-02   -1.640e-05    1.744e-04    1.048e-04   -5.400e-04  
 -9.1000e-02   -1.623e-05    1.746e-04    1.042e-04   -6.395e-04  
 -9.0000e-02   -1.605e-05    1.747e-04    1.036e-04   -5.969e-04  
 -8.9000e-02   -1.588e-05    1.748e-04    1.030e-04   -6.253e-04  
 -8.8000e-02   -1.570e-05    1.749e-04    1.024e-04   -6.111e-04  
 -8.7000e-02   -1.553e-05    1.750e-04    1.018e-04   -5.826e-04  
 -8.6000e-02   -1.535e-05    1.751e-04    1.012e-04   -6.537e-04  
 -8.5000e-02   -1.518e-05    1.752e-04    1.006e-04   -6.111e-04  
 -8.4000e-02   -1.500e-05    1.753e-04    9.992e-05   -5.826e-04  
 -8.3000e-02   -1.483e-05    1.754e-04    9.929e-05   -6.537e-04  
 -8.2000e-02   -1.465e-05    1.755e-04    9.867e-05   -6.253e-04  
 -8.1000e-02   -1.448e-05    1.756e-04    9.804e-05   -6.253e-04  
 -8.0000e-02   -1.430e-05    1.757e-04    9.743e-05   -6.253e-04  
 -7.9000e-02   -1.413e-05    1.757e-04    9.676e-05   -6.111e-04  
 -7.8000e-02   -1.395e-05    1.758e-04    9.619e-05   -6.679e-04  
 -7.7000e-02   -1.377e-05    1.759e-04    9.547e-05   -5.684e-04  
 -7.6000e-02   -1.360e-05    1.760e-04    9.487e-05   -7.248e-04  
 -7.5000e-02   -1.342e-05    1.761e-04    9.422e-05   -5.969e-04  
 -7.4000e-02   -1.324e-05    1.762e-04    9.361e-05   -6.537e-04  
 -7.3000e-02   -1.307e-05    1.763e-04    9.291e-05   -6.111e-04  
 -7.2000e-02   -1.289e-05    1.764e-04    9.229e-05   -6.963e-04  
 -7.1000e-02   -1.271e-05    1.765e-04    9.159e-05   -6.253e-04  
 -7.0000e-02   -1.254e-05    1.766e-04    9.099e-05   -6.963e-04  
 -6.9000e-02   -1.236e-05    1.767e-04    9.028e-05   -5.969e-04  
 -6.8000e-02   -1.218e-05    1.768e-04    8.961e-05   -7.105e-04  
 -6.7000e-02   -1.201e-05    1.768e-04    8.899e-05   -6.679e-04  
 -6.6000e-02   -1.183e-05    1.769e-04    8.826e-05   -6.253e-04  
 -6.5000e-02   -1.165e-05    1.770e-04    8.760e-05   -7.248e-04  
 -6.4000e-02   -1.148e-05    1.771e-04    8.693e-05   -6.679e-04  
 -6.3000e-02   -1.130e-05    1.772e-04    8.619e-05   -6.679e-04  
 -6.2000e-02   -1.112e-05    1.773e-04    8.551e-05   -7.390e-04  
 -6.1000e-02   -1.094e-05    1.774e-04    8.486e-05   -6.750e-04  
 -6.0000e-02   -1.077e-05    1.774e-04    8.408e-05   -6.537e-04  
 -5.9000e-02   -1.059e-05    1.775e-04    8.338e-05   -7.816e-04  
 -5.8000e-02   -1.041e-05    1.776e-04    8.267e-05   -7.034e-04  
 -5.7000e-02   -1.023e-05    1.777e-04    8.194e-05   -7.034e-04  
 -5.6000e-02   -1.006e-05    1.778e-04    8.120e-05   -7.319e-04  
 -5.5000e-02   -9.878e-06    1.779e-04    8.044e-05   -7.390e-04  
 -5.4000e-02   -9.700e-06    1.779e-04    7.970e-05   -7.603e-04  
 -5.3000e-02   -9.522e-06    1.780e-04    7.893e-05   -7.390e-04  
 -5.2000e-02   -9.344e-06    1.781e-04    7.816e-05   -7.745e-04  
 -5.1000e-02   -9.165e-06    1.782e-04    7.739e-05   -7.674e-04  
 -5.0000e-02   -8.987e-06    1.782e-04    7.658e-05   -7.745e-04  
 -4.9000e-02   -8.809e-06    1.783e-04    7.580e-05   -8.029e-04  
 -4.8000e-02   -8.630e-06    1.784e-04    7.497e-05   -7.816e-04  
 -4.7000e-02   -8.452e-06    1.785e-04    7.415e-05   -8.313e-04  
 -4.6000e-02   -8.273e-06    1.785e-04    7.335e-05   -8.171e-04  
 -4.5000e-02   -8.094e-06    1.786e-04    7.248e-05   -8.029e-04  
 -4.4000e-02   -7.916e-06    1.787e-04    7.165e-05   -8.669e-04  
 -4.3000e-02   -7.737e-06    1.787e-04    7.080e-05   -8.313e-04  
 -4.2000e-02   -7.558e-06    1.788e-04    6.992e-05   -8.527e-04  
 -4.1000e-02   -7.379e-06    1.789e-04    6.906e-05   -8.740e-04  
 -4.0000e-02   -7.200e-06    1.790e-04    6.820e-05   -8.669e-04  
 -3.9000e-02   -7.021e-06    1.790e-04    6.731e-05   -8.527e-04  
 -3.8000e-02   -6.842e-06    1.791e-04    6.642e-05   -8.953e-04  
 -3.7000e-02   -6.663e-06    1.791e-04    6.555e-05   -8.882e-04  
 -3.6000e-02   -6.483e-06    1.792e-04    6.467e-05   -8.740e-04  
 -3.5000e-02   -6.304e-06    1.793e-04    6.376e-05   -8.740e-04  
 -3.4000e-02   -6.125e-06    1.793e-04    6.293e-05   -9.095e-04  
 -3.3000e-02   -5.945e-06    1.794e-04    6.202e-05   -8.384e-04  
 -3.2000e-02   -5.766e-06    1.795e-04    6.114e-05   -9.095e-04  
 -3.1000e-02   -5.586e-06    1.795e-04    6.026e-05   -8.740e-04  
 -3.0000e-02   -5.406e-06    1.796e-04    5.937e-05   -8.811e-04  
 -2.9000e-02   -5.227e-06    1.796e-04    5.845e-05   -8.917e-04  
 -2.8000e-02   -5.047e-06    1.797e-04    5.755e-05   -9.166e-04  
 -2.7000e-02   -4.867e-06    1.797e-04    5.655e-05   -9.059e-04  
 -2.6000e-02   -4.687e-06    1.798e-04    5.555e-05   -9.948e-04  
 -2.5000e-02   -4.507e-06    1.799e-04    5.445e-05   -9.983e-04  
 -2.4000e-02   -4.327e-06    1.799e-04    5.326e-05   -1.108e-03  
 -2.3000e-02   -4.147e-06    1.800e-04    5.195e-05   -1.190e-03  
 -2.2000e-02   -3.967e-06    1.800e-04    5.048e-05   -1.307e-03  
 -2.1000e-02   -3.787e-06    1.801e-04    4.885e-05   -1.464e-03  
 -2.0000e-02   -3.607e-06    1.801e-04    4.701e-05   -1.638e-03  
 -1.9000e-02   -3.427e-06    1.801e-04    4.494e-05   -1.837e-03  
 -1.8000e-02   -3.247e-06    1.802e-04    4.263e-05   -2.071e-03  
 -1.7000e-02   -3.066e-06    1.802e-04    4.007e-05   -2.313e-03  
 -1.6000e-02   -2.886e-06    1.803e-04    3.723e-05   -2.554e-03  
 -1.5000e-02   -2.706e-06    1.803e-04    3.415e-05   -2.846e-03  
 -1.4000e-02   -2.525e-06    1.803e-04    3.084e-05   -3.080e-03  
 -1.3000e-02   -2.345e-06    1.803e-04    2.734e-05   -3.304e-03  
 -1.2000e-02   -2.165e-06    1.804e-04    2.370e-05   -3.499e-03  
 -1.1000e-02   -1.984e-06    1.804e-04    2.000e-05   -3.638e-03  
 -1.0000e-02   -1.804e-06    1.804e-04    1.629e-05   -3.704e-03  
 -9.0000e-03   -1.624e-06    1.804e-04    1.269e-05   -3.705e-03  
 -8.0000e-03   -1.443e-06    1.804e-04    9.289e-06   -3.601e-03  
 -7.0000e-03   -1.263e-06    1.804e-04    6.164e-06   -3.405e-03  
 -6.0000e-03   -1.082e-06    1.804e-04    3.415e-06   -3.125e-03  
 -5.0000e-03   -9.020e-07    1.804e-04    1.116e-06   -2.749e-03  
 -4.0000e-03   -7.216e-07    1.804e-04   -6.750e-07   -2.299e-03  
 -3.0000e-03   -5.412e-07    1.804e-04   -1.926e-06   -1.791e-03  
 -2.0000e-03   -3.608e-07    1.804e-04   -2.635e-06   -1.251e-03  
 -1.0000e-03   -1.804e-07    1.804e-04   -2.829e-06   -7.083e-04  
    0.          1.285e-20    1.804e-04   -2.565e-06   -1.941e-04  
  1.0000e-03    1.804e-07    1.804e-04   -1.930e-06    2.642e-04  
  2.0000e-03    3.608e-07    1.804e-04   -1.032e-06    6.346e-04  
  3.0000e-03    5.412e-07    1.804e-04   -2.570e-14    8.979e-04  
  4.0000e-03    7.216e-07    1.804e-04    1.032e-06    1.032e-03  
  5.0000e-03    9.020e-07    1.804e-04    1.930e-06    1.032e-03  
  6.0000e-03    1.082e-06    1.804e-04    2.565e-06    8.984e-04  
  7.0000e-03    1.263e-06    1.804e-04    2.828e-06    6.342e-04  
  8.0000e-03    1.443e-06    1.804e-04    2.635e-06    2.638e-04  
  9.0000e-03    1.624e-06    1.804e-04    1.927e-06   -1.936e-04  
  1.0000e-02    1.804e-06    1.804e-04    6.741e-07   -7.074e-04  
  1.1000e-02    1.984e-06    1.804e-04   -1.117e-06   -1.253e-03  
  1.2000e-02    2.165e-06    1.804e-04   -3.417e-06   -1.791e-03  
  1.3000e-02    2.345e-06    1.804e-04   -6.159e-06   -2.299e-03  
  1.4000e-02    2.525e-06    1.804e-04   -9.289e-06   -2.742e-03  
  1.5000e-02    2.706e-06    1.804e-04   -1.270e-05   -3.130e-03  
  1.6000e-02    2.886e-06    1.803e-04   -1.630e-05   -3.407e-03  
  1.7000e-02    3.066e-06    1.803e-04   -2.000e-05   -3.601e-03  
  1.8000e-02    3.247e-06    1.803e-04   -2.371e-05   -3.700e-03  
  1.9000e-02    3.427e-06    1.803e-04   -2.734e-05   -3.709e-03  
  2.0000e-02    3.607e-06    1.802e-04   -3.084e-05   -3.636e-03  
  2.1000e-02    3.787e-06    1.802e-04   -3.415e-05   -3.499e-03  
  2.2000e-02    3.967e-06    1.801e-04   -3.723e-05   -3.304e-03  
  2.3000e-02    4.147e-06    1.801e-04   -4.006e-05   -3.084e-03  
  2.4000e-02    4.327e-06    1.801e-04   -4.263e-05   -2.835e-03  
  2.5000e-02    4.507e-06    1.800e-04   -4.494e-05   -2.565e-03  
  2.6000e-02    4.687e-06    1.800e-04   -4.701e-05   -2.309e-03  
  2.7000e-02    4.867e-06    1.799e-04   -4.885e-05   -2.068e-03  
  2.8000e-02    5.047e-06    1.799e-04   -5.048e-05   -1.847e-03  
  2.9000e-02    5.227e-06    1.798e-04   -5.195e-05   -1.624e-03  
  3.0000e-02    5.406e-06    1.797e-04   -5.325e-05   -1.478e-03  
  3.1000e-02    5.586e-06    1.797e-04   -5.446e-05   -1.293e-03  
  3.2000e-02    5.766e-06    1.796e-04   -5.554e-05   -1.208e-03  
  3.3000e-02    5.945e-06    1.796e-04   -5.656e-05   -1.087e-03  
  3.4000e-02    6.125e-06    1.795e-04   -5.754e-05   -1.016e-03  
  3.5000e-02    6.304e-06    1.795e-04   -5.846e-05   -9.805e-04  
  3.6000e-02    6.483e-06    1.794e-04   -5.937e-05   -9.166e-04  
  3.7000e-02    6.663e-06    1.793e-04   -6.027e-05   -9.130e-04  
  3.8000e-02    6.842e-06    1.793e-04   -6.114e-05   -8.988e-04  
  3.9000e-02    7.021e-06    1.792e-04   -6.202e-05   -8.669e-04  
  4.0000e-02    7.200e-06    1.791e-04   -6.292e-05   -8.811e-04  
  4.1000e-02    7.379e-06    1.791e-04   -6.377e-05   -9.024e-04  
  4.2000e-02    7.558e-06    1.790e-04   -6.467e-05   -8.527e-04  
  4.3000e-02    7.737e-06    1.790e-04   -6.555e-05   -9.024e-04  
  4.4000e-02    7.916e-06    1.789e-04   -6.642e-05   -8.740e-04  
  4.5000e-02    8.094e-06    1.788e-04   -6.732e-05   -8.740e-04  
  4.6000e-02    8.273e-06    1.787e-04   -6.820e-05   -8.953e-04  
  4.7000e-02    8.452e-06    1.787e-04   -6.905e-05   -8.811e-04  
  4.8000e-02    8.630e-06    1.786e-04   -6.994e-05   -8.527e-04  
  4.9000e-02    8.809e-06    1.785e-04   -7.078e-05   -8.882e-04  
  5.0000e-02    8.987e-06    1.785e-04   -7.166e-05   -8.455e-04  
  5.1000e-02    9.165e-06    1.784e-04   -7.248e-05   -8.740e-04  
  5.2000e-02    9.344e-06    1.783e-04   -7.335e-05   -8.242e-04  
  5.3000e-02    9.522e-06    1.782e-04   -7.415e-05   -8.669e-04  
  5.4000e-02    9.700e-06    1.782e-04   -7.498e-05   -8.029e-04  
  5.5000e-02    9.878e-06    1.781e-04   -7.578e-05   -8.242e-04  
  5.6000e-02    1.006e-05    1.780e-04   -7.661e-05   -8.029e-04  
  5.7000e-02    1.023e-05    1.779e-04   -7.737e-05   -8.313e-04  
  5.8000e-02    1.041e-05    1.779e-04   -7.815e-05   -7.603e-04  
  5.9000e-02    1.059e-05    1.778e-04   -7.893e-05   -7.816e-04  
  6.0000e-02    1.077e-05    1.777e-04   -7.969e-05   -7.816e-04  
  6.1000e-02    1.094e-05    1.776e-04   -8.045e-05   -7.603e-04  
  6.2000e-02    1.112e-05    1.775e-04   -8.119e-05   -7.603e-04  
  6.3000e-02    1.130e-05    1.774e-04   -8.193e-05   -7.390e-04  
  6.4000e-02    1.148e-05    1.774e-04   -8.267e-05   -7.390e-04  
  6.5000e-02    1.165e-05    1.773e-04   -8.338e-05   -7.390e-04  
  6.6000e-02    1.183e-05    1.772e-04   -8.411e-05   -7.105e-04  
  6.7000e-02    1.201e-05    1.771e-04   -8.480e-05   -7.248e-04  
  6.8000e-02    1.218e-05    1.770e-04   -8.556e-05   -6.963e-04  
  6.9000e-02    1.236e-05    1.769e-04   -8.619e-05   -7.532e-04  
  7.0000e-02    1.254e-05    1.768e-04   -8.689e-05   -6.324e-04  
  7.1000e-02    1.271e-05    1.768e-04   -8.764e-05   -6.963e-04  
  7.2000e-02    1.289e-05    1.767e-04   -8.828e-05   -7.532e-04  
  7.3000e-02    1.307e-05    1.766e-04   -8.895e-05   -6.395e-04  
  7.4000e-02    1.324e-05    1.765e-04   -8.961e-05   -6.679e-04  
  7.5000e-02    1.342e-05    1.764e-04   -9.028e-05   -6.679e-04  
  7.6000e-02    1.360e-05    1.763e-04   -9.102e-05   -6.679e-04  
  7.7000e-02    1.377e-05    1.762e-04   -9.156e-05   -7.390e-04  
  7.8000e-02    1.395e-05    1.761e-04   -9.231e-05   -5.400e-04  
  7.9000e-02    1.413e-05    1.760e-04   -9.290e-05   -7.532e-04  
  8.0000e-02    1.430e-05    1.759e-04   -9.359e-05   -5.826e-04  
  8.1000e-02    1.448e-05    1.758e-04   -9.423e-05   -6.963e-04  
  8.2000e-02    1.465e-05    1.757e-04   -9.489e-05   -6.395e-04  
  8.3000e-02    1.483e-05    1.757e-04   -9.548e-05   -6.537e-04  
  8.4000e-02    1.500e-05    1.756e-04   -9.615e-05   -5.969e-04  
  8.5000e-02    1.518e-05    1.755e-04   -9.676e-05   -6.679e-04  
  8.6000e-02    1.535e-05    1.754e-04   -9.747e-05   -6.111e-04  
  8.7000e-02    1.553e-05    1.753e-04   -9.800e-05   -7.105e-04  
  8.8000e-02    1.570e-05    1.752e-04   -9.865e-05   -5.258e-04  
  8.9000e-02    1.588e-05    1.751e-04   -9.935e-05   -6.537e-04  
  9.0000e-02    1.605e-05    1.750e-04   -9.989e-05   -6.963e-04  
  9.1000e-02    1.623e-05    1.749e-04   -1.006e-04   -5.400e-04  
  9.2000e-02    1.640e-05    1.748e-04   -1.011e-04   -6.679e-04  
  9.3000e-02    1.658e-05    1.747e-04   -1.018e-04   -5.826e-04  
  9.4000e-02    1.675e-05    1.746e-04   -1.024e-04   -6.821e-04  
  9.5000e-02    1.693e-05    1.744e-04   -1.030e-04   -5.400e-04  
  9.6000e-02    1.710e-05    1.743e-04   -1.036e-04   -6.821e-04  
  9.7000e-02    1.728e-05    1.742e-04   -1.042e-04   -5.684e-04  
  9.8000e-02    1.745e-05    1.741e-04   -1.049e-04   -5.969e-04  
  9.9000e-02    1.762e-05    1.740e-04   -1.054e-04   -6.537e-04  
    0.10000     1.780e-05    1.739e-04   -1.061e-04   -5.826e-04  
y
x

        volt    param      
                    gx4    
   -0.10000     4.974e-03  
 -9.9000e-02      1.3040   
 -9.8000e-02   -2.238e+03  
 -9.7000e-02   -4.622e+05  
 -9.6000e-02   -4.012e+07  
 -9.5000e-02    1.230e+08  
 -9.4000e-02   -1.239e+08  
 -9.3000e-02    4.145e+07  
 -9.2000e-02   -7.105e-02  
 -9.1000e-02      0.1279   
 -9.0000e-02   -9.948e-02  
 -8.9000e-02    4.263e-02  
 -8.8000e-02   -2.842e-02  
 -8.7000e-02    1.421e-02  
 -8.6000e-02    2.842e-02  
 -8.5000e-02   -7.105e-02  
 -8.4000e-02    4.263e-02  
 -8.3000e-02    2.842e-02  
 -8.2000e-02   -7.105e-02  
 -8.1000e-02    2.842e-02  
 -8.0000e-02    1.355e-14  
 -7.9000e-02   -1.355e-14  
 -7.8000e-02    1.421e-02  
 -7.7000e-02   -5.684e-02  
 -7.6000e-02    9.948e-02  
 -7.5000e-02     -0.1563   
 -7.4000e-02      0.1279   
 -7.3000e-02   -5.684e-02  
 -7.2000e-02    4.263e-02  
 -7.1000e-02   -8.527e-02  
 -7.0000e-02    7.105e-02  
 -6.9000e-02   -7.105e-02  
 -6.8000e-02    9.948e-02  
 -6.7000e-02     -0.1137   
 -6.6000e-02    4.263e-02  
 -6.5000e-02    4.263e-02  
 -6.4000e-02   -9.948e-02  
 -6.3000e-02    5.684e-02  
 -6.2000e-02      0.       
 -6.1000e-02   -7.105e-02  
 -6.0000e-02    6.395e-02  
 -5.9000e-02    2.132e-02  
 -5.8000e-02     -0.1279   
 -5.7000e-02    7.816e-02  
 -5.6000e-02   -1.247e-09  
 -5.5000e-02   -2.842e-02  
 -5.4000e-02   -7.105e-03  
 -5.3000e-02   -2.132e-02  
 -5.2000e-02    2.132e-02  
 -5.1000e-02   -3.553e-02  
 -5.0000e-02    7.105e-03  
 -4.9000e-02   -7.105e-03  
 -4.8000e-02   -2.842e-02  
 -4.7000e-02    2.132e-02  
 -4.6000e-02   -4.974e-02  
 -4.5000e-02    1.421e-02  
 -4.4000e-02    1.421e-02  
 -4.3000e-02   -6.395e-02  
 -4.2000e-02    3.553e-02  
 -4.1000e-02   -2.132e-02  
 -4.0000e-02   -2.132e-02  
 -3.9000e-02    7.105e-03  
 -3.8000e-02    1.421e-02  
 -3.7000e-02   -4.263e-02  
 -3.6000e-02    7.105e-03  
 -3.5000e-02    1.421e-02  
 -3.4000e-02   -1.247e-09  
 -3.3000e-02   -3.553e-02  
 -3.2000e-02    7.105e-02  
 -3.1000e-02   -7.105e-02  
 -3.0000e-02    3.553e-02  
 -2.9000e-02   -7.105e-03  
 -2.8000e-02   -1.066e-02  
 -2.7000e-02   -2.487e-02  
 -2.6000e-02    1.066e-02  
 -2.5000e-02   -8.882e-02  
 -2.4000e-02   -3.553e-03  
 -2.3000e-02     -0.1101   
 -2.2000e-02   -8.171e-02  
 -2.1000e-02     -0.1172   
 -2.0000e-02     -0.1563   
 -1.9000e-02     -0.1741   
 -1.8000e-02     -0.1990   
 -1.7000e-02     -0.2345   
 -1.6000e-02     -0.2416   
 -1.5000e-02     -0.2416   
 -1.4000e-02     -0.2913   
 -1.3000e-02     -0.2345   
 -1.2000e-02     -0.2238   
 -1.1000e-02     -0.1954   
 -1.0000e-02     -0.1386   
 -9.0000e-03   -6.573e-02  
 -8.0000e-03   -1.776e-03  
 -7.0000e-03      0.1048   
 -6.0000e-03      0.1954   
 -5.0000e-03      0.2807   
 -4.0000e-03      0.3757   
 -3.0000e-03      0.4494   
 -2.0000e-03      0.5089   
 -1.0000e-03      0.5391   
    0.            0.5431   
  1.0000e-03      0.5143   
  2.0000e-03      0.4583   
  3.0000e-03      0.3704   
  4.0000e-03      0.2633   
  5.0000e-03      0.1341   
  6.0000e-03    7.709e-08  
  7.0000e-03     -0.1337   
  8.0000e-03     -0.2642   
  9.0000e-03     -0.3704   
  1.0000e-02     -0.4574   
  1.1000e-02     -0.5138   
  1.2000e-02     -0.5458   
  1.3000e-02     -0.5382   
  1.4000e-02     -0.5080   
  1.5000e-02     -0.4423   
  1.6000e-02     -0.3881   
  1.7000e-02     -0.2771   
  1.8000e-02     -0.1936   
  1.9000e-02   -9.948e-02  
  2.0000e-02   -8.882e-03  
  2.1000e-02    7.283e-02  
  2.2000e-02      0.1368   
  2.3000e-02      0.1954   
  2.4000e-02      0.2203   
  2.5000e-02      0.2487   
  2.6000e-02      0.2700   
  2.7000e-02      0.2558   
  2.8000e-02      0.2416   
  2.9000e-02      0.2203   
  3.0000e-02      0.2238   
  3.1000e-02      0.1457   
  3.2000e-02      0.1847   
  3.3000e-02    8.527e-02  
  3.4000e-02      0.1208   
  3.5000e-02    7.105e-02  
  3.6000e-02    3.553e-02  
  3.7000e-02    6.395e-02  
  3.8000e-02    3.553e-03  
  3.9000e-02    1.421e-02  
  4.0000e-02    3.197e-02  
  4.1000e-02   -1.421e-02  
  4.2000e-02   -2.132e-02  
  4.3000e-02    4.974e-02  
  4.4000e-02   -4.974e-02  
  4.5000e-02    2.842e-02  
  4.6000e-02   -2.429e-14  
  4.7000e-02   -2.132e-02  
  4.8000e-02    1.421e-02  
  4.9000e-02    2.842e-02  
  5.0000e-02   -3.553e-02  
  5.1000e-02    4.263e-02  
  5.2000e-02   -2.842e-02  
  5.3000e-02    4.974e-02  
  5.4000e-02   -4.263e-02  
  5.5000e-02    6.395e-02  
  5.6000e-02   -2.132e-02  
  5.7000e-02    2.132e-02  
  5.8000e-02   -2.842e-02  
  5.9000e-02    7.105e-02  
  6.0000e-02   -2.132e-02  
  6.1000e-02      0.       
  6.2000e-02    2.132e-02  
  6.3000e-02      0.       
  6.4000e-02    2.132e-02  
  6.5000e-02      0.       
  6.6000e-02      0.       
  6.7000e-02    2.842e-02  
  6.8000e-02   -1.421e-02  
  6.9000e-02    2.842e-02  
  7.0000e-02   -5.684e-02  
  7.1000e-02      0.1208   
  7.2000e-02   -6.395e-02  
  7.3000e-02   -5.684e-02  
  7.4000e-02      0.1137   
  7.5000e-02   -2.842e-02  
  7.6000e-02      0.       
  7.7000e-02   -1.854e-14  
  7.8000e-02   -7.105e-02  
  7.9000e-02      0.1990   
  8.0000e-02     -0.2132   
  8.1000e-02      0.1705   
  8.2000e-02     -0.1137   
  8.3000e-02    5.684e-02  
  8.4000e-02   -1.421e-02  
  8.5000e-02    5.684e-02  
  8.6000e-02   -7.105e-02  
  8.7000e-02    5.684e-02  
  8.8000e-02   -9.948e-02  
  8.9000e-02      0.1847   
  9.0000e-02     -0.1279   
  9.1000e-02   -4.263e-02  
  9.2000e-02      0.1563   
  9.3000e-02     -0.1279   
  9.4000e-02    8.527e-02  
  9.5000e-02   -9.948e-02  
  9.6000e-02      0.1421   
  9.7000e-02     -0.1421   
  9.8000e-02      0.1137   
  9.9000e-02   -2.842e-02  
    0.10000    -5.684e-02  
y
-----------------------------------------------
 ******  
 *sample netlist for bsim6

  ******  dc transfer curves tnom=  25.000 temp=  25.000 *****

   *** source        0:vgate =   -0.4000        ***

x

        volt    param        param        param        param      
                    ids          gx           gx2          gx3    
   -0.10000    -9.326e-06   -1.780e-04   -1.739e-03    1.061e-03  
 -9.9000e-02   -9.237e-06   -2.712e-02     -0.3519      -1.6331   
 -9.8000e-02   -9.148e-06    8.920e-05    -26.9453    -350.1500   
 -9.7000e-02   -9.059e-06    8.930e-05     27.2125    -2.659e+04  
 -9.6000e-02   -8.969e-06    8.939e-05    9.315e-05    5.415e+04  
 -9.5000e-02   -8.879e-06    8.948e-05    9.315e-05   -2.721e+04  
 -9.4000e-02   -8.790e-06    8.958e-05    9.314e-05      0.       
 -9.3000e-02   -8.700e-06    8.967e-05    9.307e-05   -1.421e-05  
 -9.2000e-02   -8.610e-06    8.976e-05    9.305e-05   -7.105e-05  
 -9.1000e-02   -8.520e-06    8.986e-05    9.295e-05   -1.421e-05  
 -9.0000e-02   -8.430e-06    8.995e-05    9.294e-05   -9.948e-05  
 -8.9000e-02   -8.340e-06    9.004e-05    9.280e-05   -1.421e-05  
 -8.8000e-02   -8.250e-06    9.013e-05    9.270e-05   -1.421e-04  
 -8.7000e-02   -8.160e-06    9.023e-05    9.267e-05   -9.948e-05  
 -8.6000e-02   -8.069e-06    9.032e-05    9.246e-05   -2.842e-05  
 -8.5000e-02   -7.979e-06    9.041e-05    9.236e-05   -2.132e-04  
 -8.4000e-02   -7.888e-06    9.050e-05    9.224e-05   -9.948e-05  
 -8.3000e-02   -7.797e-06    9.060e-05    9.204e-05   -1.137e-04  
 -8.2000e-02   -7.707e-06    9.069e-05    9.190e-05   -1.990e-04  
 -8.1000e-02   -7.616e-06    9.078e-05    9.170e-05   -1.421e-04  
 -8.0000e-02   -7.525e-06    9.087e-05    9.155e-05   -1.990e-04  
 -7.9000e-02   -7.434e-06    9.096e-05    9.133e-05   -1.563e-04  
 -7.8000e-02   -7.343e-06    9.105e-05    9.111e-05   -2.132e-04  
 -7.7000e-02   -7.251e-06    9.114e-05    9.091e-05   -2.274e-04  
 -7.6000e-02   -7.160e-06    9.123e-05    9.068e-05   -1.990e-04  
 -7.5000e-02   -7.069e-06    9.132e-05    9.042e-05   -2.274e-04  
 -7.4000e-02   -6.977e-06    9.141e-05    9.017e-05   -2.558e-04  
 -7.3000e-02   -6.885e-06    9.150e-05    8.988e-05   -2.558e-04  
 -7.2000e-02   -6.794e-06    9.159e-05    8.967e-05   -2.842e-04  
 -7.1000e-02   -6.702e-06    9.168e-05    8.930e-05   -2.132e-04  
 -7.0000e-02   -6.610e-06    9.177e-05    8.907e-05   -3.695e-04  
 -6.9000e-02   -6.518e-06    9.186e-05    8.869e-05   -2.274e-04  
 -6.8000e-02   -6.426e-06    9.195e-05    8.842e-05   -3.837e-04  
 -6.7000e-02   -6.334e-06    9.203e-05    8.806e-05   -2.700e-04  
 -6.6000e-02   -6.242e-06    9.212e-05    8.775e-05   -3.553e-04  
 -6.5000e-02   -6.150e-06    9.221e-05    8.734e-05   -3.126e-04  
 -6.4000e-02   -6.057e-06    9.230e-05    8.701e-05   -4.121e-04  
 -6.3000e-02   -5.965e-06    9.238e-05    8.659e-05   -3.268e-04  
 -6.2000e-02   -5.872e-06    9.247e-05    8.623e-05   -4.263e-04  
 -6.1000e-02   -5.780e-06    9.255e-05    8.580e-05   -3.553e-04  
 -6.0000e-02   -5.687e-06    9.264e-05    8.539e-05   -4.334e-04  
 -5.9000e-02   -5.594e-06    9.272e-05    8.492e-05   -4.050e-04  
 -5.8000e-02   -5.501e-06    9.281e-05    8.453e-05   -4.690e-04  
 -5.7000e-02   -5.408e-06    9.289e-05    8.402e-05   -3.979e-04  
 -5.6000e-02   -5.315e-06    9.297e-05    8.353e-05   -5.045e-04  
 -5.5000e-02   -5.222e-06    9.306e-05    8.307e-05   -4.903e-04  
 -5.4000e-02   -5.129e-06    9.314e-05    8.257e-05   -4.619e-04  
 -5.3000e-02   -5.035e-06    9.322e-05    8.200e-05   -5.045e-04  
 -5.2000e-02   -4.942e-06    9.330e-05    8.148e-05   -5.613e-04  
 -5.1000e-02   -4.849e-06    9.338e-05    8.093e-05   -5.258e-04  
 -5.0000e-02   -4.755e-06    9.346e-05    8.037e-05   -5.471e-04  
 -4.9000e-02   -4.661e-06    9.354e-05    7.974e-05   -5.613e-04  
 -4.8000e-02   -4.568e-06    9.362e-05    7.918e-05   -6.324e-04  
 -4.7000e-02   -4.474e-06    9.370e-05    7.854e-05   -5.542e-04  
 -4.6000e-02   -4.380e-06    9.377e-05    7.788e-05   -6.466e-04  
 -4.5000e-02   -4.286e-06    9.385e-05    7.726e-05   -6.537e-04  
 -4.4000e-02   -4.192e-06    9.393e-05    7.660e-05   -6.253e-04  
 -4.3000e-02   -4.098e-06    9.400e-05    7.587e-05   -6.537e-04  
 -4.2000e-02   -4.004e-06    9.407e-05    7.523e-05   -7.319e-04  
 -4.1000e-02   -3.910e-06    9.415e-05    7.450e-05   -6.466e-04  
 -4.0000e-02   -3.815e-06    9.422e-05    7.379e-05   -7.248e-04  
 -3.9000e-02   -3.721e-06    9.429e-05    7.308e-05   -7.105e-04  
 -3.8000e-02   -3.627e-06    9.437e-05    7.235e-05   -7.105e-04  
 -3.7000e-02   -3.532e-06    9.444e-05    7.163e-05   -7.248e-04  
 -3.6000e-02   -3.438e-06    9.451e-05    7.089e-05   -7.248e-04  
 -3.5000e-02   -3.343e-06    9.458e-05    7.016e-05   -7.390e-04  
 -3.4000e-02   -3.248e-06    9.464e-05    6.946e-05   -7.319e-04  
 -3.3000e-02   -3.153e-06    9.471e-05    6.868e-05   -6.963e-04  
 -3.2000e-02   -3.059e-06    9.478e-05    6.802e-05   -7.816e-04  
 -3.1000e-02   -2.964e-06    9.485e-05    6.725e-05   -6.608e-04  
 -3.0000e-02   -2.869e-06    9.491e-05    6.652e-05   -7.674e-04  
 -2.9000e-02   -2.774e-06    9.498e-05    6.576e-05   -7.319e-04  
 -2.8000e-02   -2.679e-06    9.504e-05    6.497e-05   -7.638e-04  
 -2.7000e-02   -2.583e-06    9.510e-05    6.410e-05   -7.887e-04  
 -2.6000e-02   -2.488e-06    9.517e-05    6.320e-05   -8.704e-04  
 -2.5000e-02   -2.393e-06    9.523e-05    6.215e-05   -8.988e-04  
 -2.4000e-02   -2.297e-06    9.529e-05    6.100e-05   -1.048e-03  
 -2.3000e-02   -2.202e-06    9.535e-05    5.966e-05   -1.155e-03  
 -2.2000e-02   -2.107e-06    9.540e-05    5.811e-05   -1.336e-03  
 -2.1000e-02   -2.011e-06    9.546e-05    5.632e-05   -1.549e-03  
 -2.0000e-02   -1.916e-06    9.551e-05    5.423e-05   -1.794e-03  
 -1.9000e-02   -1.820e-06    9.556e-05    5.184e-05   -2.089e-03  
 -1.8000e-02   -1.724e-06    9.560e-05    4.907e-05   -2.391e-03  
 -1.7000e-02   -1.629e-06    9.565e-05    4.595e-05   -2.764e-03  
 -1.6000e-02   -1.533e-06    9.568e-05    4.247e-05   -3.126e-03  
 -1.5000e-02   -1.437e-06    9.572e-05    3.861e-05   -3.475e-03  
 -1.4000e-02   -1.341e-06    9.575e-05    3.445e-05   -3.862e-03  
 -1.3000e-02   -1.246e-06    9.577e-05    3.001e-05   -4.158e-03  
 -1.2000e-02   -1.150e-06    9.579e-05    2.538e-05   -4.439e-03  
 -1.1000e-02   -1.054e-06    9.581e-05    2.064e-05   -4.638e-03  
 -1.0000e-02   -9.581e-07    9.582e-05    1.593e-05   -4.730e-03  
 -9.0000e-03   -8.623e-07    9.583e-05    1.134e-05   -4.720e-03  
 -8.0000e-03   -7.665e-07    9.583e-05    7.038e-06   -4.581e-03  
 -7.0000e-03   -6.706e-07    9.583e-05    3.146e-06   -4.306e-03  
 -6.0000e-03   -5.748e-07    9.583e-05   -2.141e-07   -3.892e-03  
 -5.0000e-03   -4.790e-07    9.582e-05   -2.928e-06   -3.360e-03  
 -4.0000e-03   -3.832e-07    9.582e-05   -4.921e-06   -2.714e-03  
 -3.0000e-03   -2.874e-07    9.581e-05   -6.140e-06   -1.992e-03  
 -2.0000e-03   -1.916e-07    9.580e-05   -6.589e-06   -1.219e-03  
 -1.0000e-03   -9.579e-08    9.580e-05   -6.299e-06   -4.485e-04  
    0.          4.507e-21    9.580e-05   -5.356e-06    2.891e-04  
  1.0000e-03    9.579e-08    9.579e-05   -3.884e-06    9.430e-04  
  2.0000e-03    1.916e-07    9.579e-05   -2.039e-06    1.472e-03  
  3.0000e-03    2.874e-07    9.580e-05    2.220e-10    1.845e-03  
  4.0000e-03    3.832e-07    9.580e-05    2.038e-06    2.039e-03  
  5.0000e-03    4.790e-07    9.580e-05    3.885e-06    2.038e-03  
  6.0000e-03    5.748e-07    9.581e-05    5.358e-06    1.847e-03  
  7.0000e-03    6.706e-07    9.582e-05    6.297e-06    1.473e-03  
  8.0000e-03    7.665e-07    9.582e-05    6.590e-06    9.395e-04  
  9.0000e-03    8.623e-07    9.583e-05    6.138e-06    2.931e-04  
  1.0000e-02    9.581e-07    9.583e-05    4.921e-06   -4.521e-04  
  1.1000e-02    1.054e-06    9.583e-05    2.930e-06   -1.218e-03  
  1.2000e-02    1.150e-06    9.583e-05    2.149e-07   -1.990e-03  
  1.3000e-02    1.246e-06    9.582e-05   -3.151e-06   -2.715e-03  
  1.4000e-02    1.341e-06    9.581e-05   -7.033e-06   -3.366e-03  
  1.5000e-02    1.437e-06    9.579e-05   -1.135e-05   -3.881e-03  
  1.6000e-02    1.533e-06    9.577e-05   -1.592e-05   -4.315e-03  
  1.7000e-02    1.629e-06    9.575e-05   -2.064e-05   -4.576e-03  
  1.8000e-02    1.724e-06    9.572e-05   -2.538e-05   -4.718e-03  
  1.9000e-02    1.820e-06    9.568e-05   -3.002e-05   -4.739e-03  
  2.0000e-02    1.916e-06    9.565e-05   -3.445e-05   -4.635e-03  
  2.1000e-02    2.011e-06    9.560e-05   -3.862e-05   -4.430e-03  
  2.2000e-02    2.107e-06    9.556e-05   -4.247e-05   -4.173e-03  
  2.3000e-02    2.202e-06    9.551e-05   -4.595e-05   -3.848e-03  
  2.4000e-02    2.297e-06    9.546e-05   -4.907e-05   -3.485e-03  
  2.5000e-02    2.393e-06    9.540e-05   -5.183e-05   -3.123e-03  
  2.6000e-02    2.488e-06    9.535e-05   -5.424e-05   -2.760e-03  
  2.7000e-02    2.583e-06    9.529e-05   -5.631e-05   -2.405e-03  
  2.8000e-02    2.679e-06    9.523e-05   -5.812e-05   -2.068e-03  
  2.9000e-02    2.774e-06    9.517e-05   -5.965e-05   -1.812e-03  
  3.0000e-02    2.869e-06    9.510e-05   -6.100e-05   -1.535e-03  
  3.1000e-02    2.964e-06    9.504e-05   -6.216e-05   -1.343e-03  
  3.2000e-02    3.059e-06    9.498e-05   -6.319e-05   -1.165e-03  
  3.3000e-02    3.153e-06    9.491e-05   -6.412e-05   -1.023e-03  
  3.4000e-02    3.248e-06    9.485e-05   -6.495e-05   -9.308e-04  
  3.5000e-02    3.343e-06    9.478e-05   -6.576e-05   -8.349e-04  
  3.6000e-02    3.438e-06    9.471e-05   -6.652e-05   -8.136e-04  
  3.7000e-02    3.532e-06    9.464e-05   -6.726e-05   -7.567e-04  
  3.8000e-02    3.627e-06    9.458e-05   -6.799e-05   -7.390e-04  
  3.9000e-02    3.721e-06    9.451e-05   -6.872e-05   -7.319e-04  
  4.0000e-02    3.815e-06    9.444e-05   -6.945e-05   -7.248e-04  
  4.1000e-02    3.910e-06    9.437e-05   -7.016e-05   -7.319e-04  
  4.2000e-02    4.004e-06    9.429e-05   -7.089e-05   -7.105e-04  
  4.3000e-02    4.098e-06    9.422e-05   -7.164e-05   -7.319e-04  
  4.4000e-02    4.192e-06    9.415e-05   -7.233e-05   -7.532e-04  
  4.5000e-02    4.286e-06    9.407e-05   -7.309e-05   -6.821e-04  
  4.6000e-02    4.380e-06    9.400e-05   -7.381e-05   -7.603e-04  
  4.7000e-02    4.474e-06    9.393e-05   -7.449e-05   -7.248e-04  
  4.8000e-02    4.568e-06    9.385e-05   -7.521e-05   -6.750e-04  
  4.9000e-02    4.661e-06    9.377e-05   -7.590e-05   -7.248e-04  
  5.0000e-02    4.755e-06    9.370e-05   -7.659e-05   -6.892e-04  
  5.1000e-02    4.849e-06    9.362e-05   -7.725e-05   -6.892e-04  
  5.2000e-02    4.942e-06    9.354e-05   -7.789e-05   -6.608e-04  
  5.3000e-02    5.035e-06    9.346e-05   -7.854e-05   -6.395e-04  
  5.4000e-02    5.129e-06    9.338e-05   -7.916e-05   -6.537e-04  
  5.5000e-02    5.222e-06    9.330e-05   -7.976e-05   -6.182e-04  
  5.6000e-02    5.315e-06    9.322e-05   -8.036e-05   -5.969e-04  
  5.7000e-02    5.408e-06    9.314e-05   -8.095e-05   -5.969e-04  
  5.8000e-02    5.501e-06    9.306e-05   -8.146e-05   -5.898e-04  
  5.9000e-02    5.594e-06    9.297e-05   -8.202e-05   -5.187e-04  
  6.0000e-02    5.687e-06    9.289e-05   -8.257e-05   -5.542e-04  
  6.1000e-02    5.780e-06    9.281e-05   -8.305e-05   -5.471e-04  
  6.2000e-02    5.872e-06    9.272e-05   -8.355e-05   -4.832e-04  
  6.3000e-02    5.965e-06    9.264e-05   -8.403e-05   -4.974e-04  
  6.4000e-02    6.057e-06    9.255e-05   -8.452e-05   -4.832e-04  
  6.5000e-02    6.150e-06    9.247e-05   -8.494e-05   -4.903e-04  
  6.6000e-02    6.242e-06    9.238e-05   -8.536e-05   -4.192e-04  
  6.7000e-02    6.334e-06    9.230e-05   -8.580e-05   -4.263e-04  
  6.8000e-02    6.426e-06    9.221e-05   -8.626e-05   -4.334e-04  
  6.9000e-02    6.518e-06    9.212e-05   -8.656e-05   -4.619e-04  
  7.0000e-02    6.610e-06    9.203e-05   -8.703e-05   -2.984e-04  
  7.1000e-02    6.702e-06    9.195e-05   -8.738e-05   -4.690e-04  
  7.2000e-02    6.794e-06    9.186e-05   -8.768e-05   -3.553e-04  
  7.3000e-02    6.885e-06    9.177e-05   -8.809e-05   -2.984e-04  
  7.4000e-02    6.977e-06    9.168e-05   -8.839e-05   -4.121e-04  
  7.5000e-02    7.069e-06    9.159e-05   -8.875e-05   -2.984e-04  
  7.6000e-02    7.160e-06    9.150e-05   -8.905e-05   -3.553e-04  
  7.7000e-02    7.251e-06    9.141e-05   -8.929e-05   -2.984e-04  
  7.8000e-02    7.343e-06    9.132e-05   -8.971e-05   -2.416e-04  
  7.9000e-02    7.434e-06    9.123e-05   -8.983e-05   -4.263e-04  
  8.0000e-02    7.525e-06    9.114e-05   -9.021e-05   -1.137e-04  
  8.1000e-02    7.616e-06    9.105e-05   -9.042e-05   -3.837e-04  
  8.2000e-02    7.707e-06    9.096e-05   -9.065e-05   -2.132e-04  
  8.3000e-02    7.797e-06    9.087e-05   -9.092e-05   -2.274e-04  
  8.4000e-02    7.888e-06    9.078e-05   -9.109e-05   -2.700e-04  
  8.5000e-02    7.979e-06    9.069e-05   -9.136e-05   -1.705e-04  
  8.6000e-02    8.069e-06    9.060e-05   -9.152e-05   -2.700e-04  
  8.7000e-02    8.160e-06    9.050e-05   -9.173e-05   -1.563e-04  
  8.8000e-02    8.250e-06    9.041e-05   -9.189e-05   -2.132e-04  
  8.9000e-02    8.340e-06    9.032e-05   -9.206e-05   -1.563e-04  
  9.0000e-02    8.430e-06    9.023e-05   -9.223e-05   -1.705e-04  
  9.1000e-02    8.520e-06    9.013e-05   -9.234e-05   -1.705e-04  
  9.2000e-02    8.610e-06    9.004e-05   -9.250e-05   -1.137e-04  
  9.3000e-02    8.700e-06    8.995e-05   -9.261e-05   -1.563e-04  
  9.4000e-02    8.790e-06    8.986e-05   -9.273e-05   -1.137e-04  
  9.5000e-02    8.879e-06    8.976e-05   -9.281e-05   -1.137e-04  
  9.6000e-02    8.969e-06    8.967e-05   -9.290e-05   -8.527e-05  
  9.7000e-02    9.059e-06    8.958e-05   -9.300e-05   -8.527e-05  
  9.8000e-02    9.148e-06    8.948e-05   -9.302e-05   -9.948e-05  
  9.9000e-02    9.237e-06    8.939e-05   -9.311e-05   -2.842e-05  
    0.10000     9.326e-06    8.930e-05   -9.310e-05   -8.527e-05  
y
x

        volt    param      
                    gx4    
   -0.10000     5.826e-03  
 -9.9000e-02      1.6433   
 -9.8000e-02   -1.634e+03  
 -9.7000e-02   -3.485e+05  
 -9.6000e-02   -2.624e+07  
 -9.5000e-02    8.075e+07  
 -9.4000e-02   -8.137e+07  
 -9.3000e-02    2.721e+07  
 -9.2000e-02   -1.421e-02  
 -9.1000e-02   -5.684e-02  
 -9.0000e-02    5.684e-02  
 -8.9000e-02   -8.527e-02  
 -8.8000e-02    8.527e-02  
 -8.7000e-02     -0.1279   
 -8.6000e-02    4.263e-02  
 -8.5000e-02    7.105e-02  
 -8.4000e-02     -0.1847   
 -8.3000e-02      0.1137   
 -8.2000e-02   -1.421e-02  
 -8.1000e-02   -8.527e-02  
 -8.0000e-02    5.684e-02  
 -7.9000e-02   -5.684e-02  
 -7.8000e-02    4.263e-02  
 -7.7000e-02   -5.684e-02  
 -7.6000e-02   -1.421e-02  
 -7.5000e-02    2.842e-02  
 -7.4000e-02   -2.842e-02  
 -7.3000e-02   -2.842e-02  
 -7.2000e-02   -1.260e-09  
 -7.1000e-02   -2.842e-02  
 -7.0000e-02    7.105e-02  
 -6.9000e-02     -0.1563   
 -6.8000e-02      0.1421   
 -6.7000e-02     -0.1563   
 -6.6000e-02      0.1137   
 -6.5000e-02   -8.527e-02  
 -6.4000e-02    4.263e-02  
 -6.3000e-02   -9.948e-02  
 -6.2000e-02    8.527e-02  
 -6.1000e-02   -9.948e-02  
 -6.0000e-02    7.105e-02  
 -5.9000e-02   -7.816e-02  
 -5.8000e-02    2.842e-02  
 -5.7000e-02   -6.395e-02  
 -5.6000e-02    7.105e-02  
 -5.5000e-02     -0.1066   
 -5.4000e-02    1.421e-02  
 -5.3000e-02    2.842e-02  
 -5.2000e-02   -4.263e-02  
 -5.1000e-02   -5.684e-02  
 -5.0000e-02    3.553e-02  
 -4.9000e-02   -2.132e-02  
 -4.8000e-02   -1.421e-02  
 -4.7000e-02   -7.105e-02  
 -4.6000e-02    7.816e-02  
 -4.5000e-02   -9.237e-02  
 -4.4000e-02   -7.105e-03  
 -4.3000e-02    2.842e-02  
 -4.2000e-02   -2.842e-02  
 -4.1000e-02   -7.816e-02  
 -4.0000e-02    8.527e-02  
 -3.9000e-02   -7.816e-02  
 -3.8000e-02    1.421e-02  
 -3.7000e-02    6.495e-10  
 -3.6000e-02   -1.421e-02  
 -3.5000e-02    1.952e-09  
 -3.4000e-02   -1.421e-02  
 -3.3000e-02    7.105e-03  
 -3.2000e-02    3.553e-02  
 -3.1000e-02   -8.527e-02  
 -3.0000e-02      0.1208   
 -2.9000e-02     -0.1066   
 -2.8000e-02    3.553e-02  
 -2.7000e-02   -3.197e-02  
 -2.6000e-02   -2.487e-02  
 -2.5000e-02   -8.171e-02  
 -2.4000e-02   -2.842e-02  
 -2.3000e-02     -0.1492   
 -2.2000e-02     -0.1066   
 -2.1000e-02     -0.1812   
 -2.0000e-02     -0.2132   
 -1.9000e-02     -0.2451   
 -1.8000e-02     -0.2949   
 -1.7000e-02     -0.3020   
 -1.6000e-02     -0.3730   
 -1.5000e-02     -0.3624   
 -1.4000e-02     -0.3482   
 -1.3000e-02     -0.3872   
 -1.2000e-02     -0.2967   
 -1.1000e-02     -0.2807   
 -1.0000e-02     -0.1990   
 -9.0000e-03   -9.237e-02  
 -8.0000e-03    1.066e-02  
 -7.0000e-03      0.1386   
 -6.0000e-03      0.2753   
 -5.0000e-03      0.4139   
 -4.0000e-03      0.5320   
 -3.0000e-03      0.6457   
 -2.0000e-03      0.7221   
 -1.0000e-03      0.7727   
    0.            0.7709   
  1.0000e-03      0.7376   
  2.0000e-03      0.6539   
  3.0000e-03      0.5289   
  4.0000e-03      0.3735   
  5.0000e-03      0.1938   
  6.0000e-03   -1.332e-03  
  7.0000e-03     -0.1910   
  8.0000e-03     -0.3744   
  9.0000e-03     -0.5331   
  1.0000e-02     -0.6464   
  1.1000e-02     -0.7452   
  1.2000e-02     -0.7656   
  1.3000e-02     -0.7727   
  1.4000e-02     -0.7248   
  1.5000e-02     -0.6510   
  1.6000e-02     -0.5151   
  1.7000e-02     -0.4334   
  1.8000e-02     -0.2611   
  1.9000e-02     -0.1421   
  2.0000e-02   -2.132e-02  
  2.1000e-02      0.1048   
  2.2000e-02      0.2043   
  2.3000e-02      0.2576   
  2.4000e-02      0.3251   
  2.5000e-02      0.3624   
  2.6000e-02      0.3624   
  2.7000e-02      0.3624   
  2.8000e-02      0.3553   
  2.9000e-02      0.3375   
  3.0000e-02      0.2558   
  3.1000e-02      0.2771   
  3.2000e-02      0.1918   
  3.3000e-02      0.1776   
  3.4000e-02      0.1421   
  3.5000e-02    9.237e-02  
  3.6000e-02    9.592e-02  
  3.7000e-02    2.132e-02  
  3.8000e-02    5.684e-02  
  3.9000e-02    1.776e-02  
  4.0000e-02    7.105e-03  
  4.1000e-02    7.105e-03  
  4.2000e-02   -7.105e-03  
  4.3000e-02    2.132e-02  
  4.4000e-02   -2.132e-02  
  4.5000e-02   -2.132e-02  
  4.6000e-02    7.105e-02  
  4.7000e-02   -7.816e-02  
  4.8000e-02    3.553e-02  
  4.9000e-02    4.974e-02  
  5.0000e-02   -4.974e-02  
  5.1000e-02    3.553e-02  
  5.2000e-02      0.       
  5.3000e-02    2.842e-02  
  5.4000e-02    2.132e-02  
  5.5000e-02   -1.421e-02  
  5.6000e-02    3.553e-02  
  5.7000e-02    2.132e-02  
  5.8000e-02      0.       
  5.9000e-02    7.105e-03  
  6.0000e-02    7.105e-02  
  6.1000e-02   -3.553e-02  
  6.2000e-02    7.105e-03  
  6.3000e-02    6.395e-02  
  6.4000e-02   -1.421e-02  
  6.5000e-02    1.421e-02  
  6.6000e-02   -7.105e-03  
  6.7000e-02    7.105e-02  
  6.8000e-02   -7.105e-03  
  6.9000e-02   -7.105e-03  
  7.0000e-02   -2.842e-02  
  7.1000e-02      0.1634   
  7.2000e-02     -0.1705   
  7.3000e-02      0.1137   
  7.4000e-02    5.684e-02  
  7.5000e-02     -0.1137   
  7.6000e-02      0.1137   
  7.7000e-02   -5.684e-02  
  7.8000e-02    5.684e-02  
  7.9000e-02    5.684e-02  
  8.0000e-02     -0.1847   
  8.1000e-02      0.3126   
  8.2000e-02     -0.2700   
  8.3000e-02      0.1705   
  8.4000e-02   -1.421e-02  
  8.5000e-02   -4.263e-02  
  8.6000e-02    9.948e-02  
  8.7000e-02   -9.948e-02  
  8.8000e-02      0.1137   
  8.9000e-02   -5.684e-02  
  9.0000e-02    5.684e-02  
  9.1000e-02   -1.421e-02  
  9.2000e-02      0.       
  9.3000e-02    5.684e-02  
  9.4000e-02   -4.263e-02  
  9.5000e-02    4.263e-02  
  9.6000e-02      0.       
  9.7000e-02    2.842e-02  
  9.8000e-02      0.       
  9.9000e-02   -1.421e-02  
    0.10000     7.105e-02  
y
-----------------------------------------------

          ***** job concluded
1****** HSPICE -- G-2012.06 32-BIT (May 27 2012) RHEL32 ******                  
 ******  
 *sample netlist for bsim6

  ******  job statistics summary tnom=  25.000 temp=  25.000 *****
  
  
 ******  Machine Information  ******
 CPU:
 model name	: AMD Opteron(tm) Processor 248
 cpu MHz	: 2200.048
  
 OS:
 Linux version 2.6.9-22.EL (bhcompile@crowe.devel.redhat.com) (gcc version 3.4.4 20050721 (Red Hat 3.4.4-2)) #1 Mon Sep 19 17:49:49 EDT 2005


  ******  HSPICE Threads Information  ******

  Command Line Threads Count :     1
  Available CPU Count        :     1
  Actual Threads Count       :     1


  ******  Circuit Statistics  ******
  # nodes       =      15 # elements   =       5
  # resistors   =       0 # capacitors =       0 # inductors   =       0
  # mutual_inds =       0 # vccs       =       0 # vcvs        =       1
  # cccs        =       0 # ccvs       =       0 # volt_srcs   =       3
  # curr_srcs   =       0 # diodes     =       0 # bjts        =       0
  # jfets       =       0 # mosfets    =       0 # U elements  =       0
  # T elements  =       0 # W elements =       0 # B elements  =       0
  # S elements  =       0 # P elements =       0 # va device   =       1
  # vector_srcs =       0 # N elements =       0


  ******  Runtime Statistics (seconds)  ******

  analysis           time    # points   tot. iter  conv.iter
  op point           0.00           1           0
  dc sweep           0.13         603        1212
  readin             3.37
  errchk             0.04
  setup              0.00
  output             0.01


           peak memory used        114.34 megabytes
           total cpu time            3.55 seconds
           total elapsed time       14.34 seconds
           job started at     15:39:03 03/19/2014
           job ended   at     15:39:17 03/19/2014


 lic: Release hspice token(s) 
 lic: total license checkout elapse time:        0.20(s)


pVA concluded on Wed Mar 19 15:39:17 2014

