Using: /cad/synopsys/Hspice/G-2012.06/hspice/linux/hspice gummel_nmos.sp
 ****** HSPICE -- G-2012.06 32-BIT (May 27 2012) RHEL32 ******                  
  Copyright (C) 2012 Synopsys, Inc. All Rights Reserved.                        
  Unpublished-rights reserved under US copyright laws.
  This program is protected by law and is subject to the
  terms and conditions of the license agreement from Synopsys.
  Use of this program is your acceptance to be bound by the
  license agreement. HSPICE is the trademark of Synopsys, Inc.
  Input File: gummel_nmos.sp                                                    
  Command line options: gummel_nmos.sp
 lic:  
 lic: FLEXlm: v10.8 
 lic: USER:   agarwalh             HOSTNAME: xcel1.vlsi.iitk.ac.in 
 lic: HOSTID: 0008a1953eea         PID:      18400 
 lic: Using FLEXlm license file: 
 lic: 27000@xcel0 
 lic: Checkout 1 hspice 
 lic: License/Maintenance for hspice will expire on 15-jun-2014/2013.03 
 lic: 1(in_use)/5(total) FLOATING license(s) on SERVER xcel0 
 lic:   
 Init: read install configuration file: /cad/synopsys/Hspice/G-2012.06/hspice/meta.cfg


 --------------------------------------------------------
|                                                        |
|          Synopsys Unified Verilog-A (pVA v2.0)         |
|                                                        |
|           Machine Name: xcel1.vlsi.iitk.ac.in          |
| Copyright (c) 2011 Synopsys Inc., All Rights Reserved. |
|                                                        |
 --------------------------------------------------------

libepva built by pvamgr synmake_pva_build  on Tue May  1 20:03:16 PDT 2012
HSP_HOME:   /cad/synopsys/Hspice/G-2012.06/hspice
HSP_ARCH:   linux
HSP_GCC :   /cad/synopsys/Hspice/G-2012.06/hspice/GNU/amd64/gcc-4.5.2-static/bin/gcc -m32 
HSP_GCC_VER:   4.5.2
Working-Dir: /users/phd/agarwalh/synopsys_designs/BSIM6/Release_test/bsim6.1.1/bsim6.1.1
Args:        -p hsp -t spi -f gummel_nmos.pvadir/pvaHDL.lis -o gummel_nmos.pvadir 


Begin of pVA compiling on Wed Mar 19 15:38:19 2014

Parsing './bsim6.va'
Parsing include file '/cad/synopsys/Hspice/G-2012.06/hspice/include/constants.vams'
Parsing include file '/cad/synopsys/Hspice/G-2012.06/hspice/include/disciplines.vams'

End of pVA compiling on Wed Mar 19 15:38:20 2014


End of build pVA DB on Wed Mar 19 15:38:20 2014

*pvaI* Module (bsim6): 4 unexpanded port, 0 init, 2370 behav, 64 contrib, 43/2409 expr(s)
*pvaI* Resizing DB size for v count = 1
*pvaI*        Has DIS (ST SB), 3 afCount
*pvaI*        0 const-G and 0 const-C, Has switch branch.
*pvaI* Module (bsim6): generated 7 flow node(s) during compilation.

End of pVA genC on Wed Mar 19 15:38:23 2014

*pvaI* #### Total 316 line-size(s), 43 expr(s), 64 contr(s), 0 init(s), 2370 behav(s), 4 port(s)

Generating gummel_nmos.pvadir/pvaRTL_linux.so


End of submitting pVA gummel_nmos.pvadir/pvaRTL.mak on Wed Mar 19 15:38:33 2014


End of pVA elaboration on Wed Mar 19 15:38:33 2014

 Loading pVA library gummel_nmos.pvadir/pvaRTL_linux.so...
1****** HSPICE -- G-2012.06 32-BIT (May 27 2012) RHEL32 ******                  
 ******  
 *sample netlist for bsim6

  ******  circuit name directory
 circuit number to circuit name directory
   number circuitname                     definition         multiplier
        0 main circuit
        1 x1.                             bsim6(va)          1.00 
*pvaI* Creating Verilog-A module 'bsim6' for X1
  
      
 *****************************************************************
 ******  option summary
 ******
 runlvl  = 3         bypass  = 2         
  Opening plot unit= 15
 file=gummel_nmos.pa0                                                          

 ******  
 *sample netlist for bsim6

  ******  dc transfer curves tnom=  25.000 temp=  25.000 *****

   *** source        0:vgate =    0.            ***

x

        volt    param        param        param        param      
                    ids          gx           gx2          gx3    
   -0.10000    -2.240e-07      0.           0.           0.       
 -9.9000e-02   -2.171e-07   -2.240e-04      0.           0.       
 -9.8000e-02   -2.104e-07    6.895e-06     -0.2240       0.       
 -9.7000e-02   -2.038e-07    6.704e-06      0.2309    -223.9596   
 -9.6000e-02   -1.975e-07    6.517e-06   -1.911e-04    454.8145   
 -9.5000e-02   -1.914e-07    6.334e-06   -1.870e-04   -231.0459   
 -9.4000e-02   -1.854e-07    6.156e-06   -1.828e-04    4.079e-03  
 -9.3000e-02   -1.796e-07    5.981e-06   -1.787e-04    4.192e-03  
 -9.2000e-02   -1.739e-07    5.810e-06   -1.748e-04    4.093e-03  
 -9.1000e-02   -1.684e-07    5.644e-06   -1.707e-04    3.965e-03  
 -9.0000e-02   -1.631e-07    5.481e-06   -1.667e-04    4.079e-03  
 -8.9000e-02   -1.579e-07    5.322e-06   -1.627e-04    3.993e-03  
 -8.8000e-02   -1.529e-07    5.167e-06   -1.588e-04    3.936e-03  
 -8.7000e-02   -1.481e-07    5.016e-06   -1.550e-04    3.894e-03  
 -8.6000e-02   -1.433e-07    4.868e-06   -1.512e-04    3.823e-03  
 -8.5000e-02   -1.388e-07    4.725e-06   -1.474e-04    3.865e-03  
 -8.4000e-02   -1.343e-07    4.585e-06   -1.437e-04    3.794e-03  
 -8.3000e-02   -1.300e-07    4.448e-06   -1.400e-04    3.709e-03  
 -8.2000e-02   -1.258e-07    4.316e-06   -1.363e-04    3.681e-03  
 -8.1000e-02   -1.217e-07    4.186e-06   -1.328e-04    3.638e-03  
 -8.0000e-02   -1.178e-07    4.061e-06   -1.292e-04    3.567e-03  
 -7.9000e-02   -1.140e-07    3.938e-06   -1.257e-04    3.539e-03  
 -7.8000e-02   -1.103e-07    3.819e-06   -1.223e-04    3.496e-03  
 -7.7000e-02   -1.067e-07    3.704e-06   -1.190e-04    3.396e-03  
 -7.6000e-02   -1.032e-07    3.591e-06   -1.157e-04    3.340e-03  
 -7.5000e-02   -9.983e-08    3.482e-06   -1.124e-04    3.325e-03  
 -7.4000e-02   -9.656e-08    3.376e-06   -1.093e-04    3.240e-03  
 -7.3000e-02   -9.339e-08    3.273e-06   -1.062e-04    3.183e-03  
 -7.2000e-02   -9.031e-08    3.173e-06   -1.031e-04    3.098e-03  
 -7.1000e-02   -8.733e-08    3.075e-06   -1.001e-04    3.055e-03  
 -7.0000e-02   -8.444e-08    2.981e-06   -9.719e-05    2.984e-03  
 -6.9000e-02   -8.164e-08    2.890e-06   -9.430e-05    2.927e-03  
 -6.8000e-02   -7.893e-08    2.801e-06   -9.156e-05    2.885e-03  
 -6.7000e-02   -7.630e-08    2.715e-06   -8.880e-05    2.743e-03  
 -6.6000e-02   -7.375e-08    2.631e-06   -8.616e-05    2.757e-03  
 -6.5000e-02   -7.127e-08    2.550e-06   -8.362e-05    2.643e-03  
 -6.4000e-02   -6.888e-08    2.471e-06   -8.099e-05    2.544e-03  
 -6.3000e-02   -6.656e-08    2.395e-06   -7.859e-05    2.629e-03  
 -6.2000e-02   -6.431e-08    2.321e-06   -7.618e-05    2.402e-03  
 -6.1000e-02   -6.213e-08    2.250e-06   -7.383e-05    2.409e-03  
 -6.0000e-02   -6.001e-08    2.180e-06   -7.157e-05    2.352e-03  
 -5.9000e-02   -5.797e-08    2.113e-06   -6.933e-05    2.260e-03  
 -5.8000e-02   -5.598e-08    2.048e-06   -6.720e-05    2.238e-03  
 -5.7000e-02   -5.406e-08    1.985e-06   -6.509e-05    2.132e-03  
 -5.6000e-02   -5.219e-08    1.924e-06   -6.305e-05    2.103e-03  
 -5.5000e-02   -5.038e-08    1.865e-06   -6.105e-05    2.046e-03  
 -5.4000e-02   -4.863e-08    1.808e-06   -5.912e-05    1.997e-03  
 -5.3000e-02   -4.693e-08    1.752e-06   -5.725e-05    1.926e-03  
 -5.2000e-02   -4.529e-08    1.699e-06   -5.540e-05    1.876e-03  
 -5.1000e-02   -4.369e-08    1.647e-06   -5.363e-05    1.847e-03  
 -5.0000e-02   -4.214e-08    1.597e-06   -5.190e-05    1.769e-03  
 -4.9000e-02   -4.064e-08    1.548e-06   -5.022e-05    1.734e-03  
 -4.8000e-02   -3.918e-08    1.501e-06   -4.857e-05    1.677e-03  
 -4.7000e-02   -3.777e-08    1.456e-06   -4.697e-05    1.656e-03  
 -4.6000e-02   -3.640e-08    1.412e-06   -4.542e-05    1.592e-03  
 -4.5000e-02   -3.508e-08    1.369e-06   -4.390e-05    1.556e-03  
 -4.4000e-02   -3.379e-08    1.328e-06   -4.245e-05    1.521e-03  
 -4.3000e-02   -3.254e-08    1.289e-06   -4.100e-05    1.450e-03  
 -4.2000e-02   -3.132e-08    1.250e-06   -3.958e-05    1.450e-03  
 -4.1000e-02   -3.014e-08    1.214e-06   -3.826e-05    1.421e-03  
 -4.0000e-02   -2.900e-08    1.178e-06   -3.690e-05    1.315e-03  
 -3.9000e-02   -2.789e-08    1.144e-06   -3.561e-05    1.364e-03  
 -3.8000e-02   -2.681e-08    1.110e-06   -3.438e-05    1.286e-03  
 -3.7000e-02   -2.576e-08    1.078e-06   -3.311e-05    1.236e-03  
 -3.6000e-02   -2.475e-08    1.048e-06   -3.196e-05    1.265e-03  
 -3.5000e-02   -2.376e-08    1.018e-06   -3.075e-05    1.151e-03  
 -3.4000e-02   -2.279e-08    9.896e-07   -2.963e-05    1.208e-03  
 -3.3000e-02   -2.186e-08    9.622e-07   -2.852e-05    1.123e-03  
 -3.2000e-02   -2.095e-08    9.358e-07   -2.743e-05    1.108e-03  
 -3.1000e-02   -2.006e-08    9.105e-07   -2.638e-05    1.094e-03  
 -3.0000e-02   -1.920e-08    8.861e-07   -2.533e-05    1.052e-03  
 -2.9000e-02   -1.836e-08    8.628e-07   -2.434e-05    1.044e-03  
 -2.8000e-02   -1.754e-08    8.404e-07   -2.334e-05    9.912e-04  
 -2.7000e-02   -1.674e-08    8.190e-07   -2.239e-05    1.002e-03  
 -2.6000e-02   -1.596e-08    7.984e-07   -2.142e-05    9.521e-04  
 -2.5000e-02   -1.520e-08    7.788e-07   -2.052e-05    9.628e-04  
 -2.4000e-02   -1.446e-08    7.601e-07   -1.961e-05    9.024e-04  
 -2.3000e-02   -1.374e-08    7.423e-07   -1.873e-05    9.130e-04  
 -2.2000e-02   -1.303e-08    7.252e-07   -1.786e-05    8.811e-04  
 -2.1000e-02   -1.233e-08    7.091e-07   -1.701e-05    8.704e-04  
 -2.0000e-02   -1.165e-08    6.937e-07   -1.618e-05    8.420e-04  
 -1.9000e-02   -1.099e-08    6.791e-07   -1.537e-05    8.349e-04  
 -1.8000e-02   -1.034e-08    6.654e-07   -1.456e-05    8.136e-04  
 -1.7000e-02   -9.696e-09    6.524e-07   -1.379e-05    8.100e-04  
 -1.6000e-02   -9.067e-09    6.401e-07   -1.300e-05    7.674e-04  
 -1.5000e-02   -8.449e-09    6.286e-07   -1.225e-05    7.851e-04  
 -1.4000e-02   -7.841e-09    6.178e-07   -1.149e-05    7.532e-04  
 -1.3000e-02   -7.243e-09    6.078e-07   -1.077e-05    7.621e-04  
 -1.2000e-02   -6.653e-09    5.985e-07   -1.004e-05    7.194e-04  
 -1.1000e-02   -6.071e-09    5.899e-07   -9.322e-06    7.301e-04  
 -1.0000e-02   -5.496e-09    5.819e-07   -8.619e-06    7.159e-04  
 -9.0000e-03   -4.928e-09    5.747e-07   -7.919e-06    7.034e-04  
 -8.0000e-03   -4.366e-09    5.682e-07   -7.235e-06    6.999e-04  
 -7.0000e-03   -3.809e-09    5.623e-07   -6.551e-06    6.839e-04  
 -6.0000e-03   -3.256e-09    5.571e-07   -5.878e-06    6.839e-04  
 -5.0000e-03   -2.708e-09    5.525e-07   -5.210e-06    6.732e-04  
 -4.0000e-03   -2.162e-09    5.486e-07   -4.545e-06    6.679e-04  
 -3.0000e-03   -1.619e-09    5.454e-07   -3.890e-06    6.652e-04  
 -2.0000e-03   -1.079e-09    5.428e-07   -3.233e-06    6.546e-04  
 -1.0000e-03   -5.390e-10    5.409e-07   -2.584e-06    6.573e-04  
    0.         -1.229e-24    5.396e-07   -1.936e-06    6.493e-04  
  1.0000e-03    5.390e-10    5.390e-07   -1.288e-06    6.477e-04  
  2.0000e-03    1.079e-09    5.390e-07   -6.444e-07    6.480e-04  
  3.0000e-03    1.622e-09    5.402e-07    7.871e-08    6.436e-04  
  4.0000e-03    2.167e-09    5.424e-07    1.117e-06    7.231e-04  
  5.0000e-03    2.717e-09    5.456e-07    2.214e-06    1.038e-03  
  6.0000e-03    3.271e-09    5.497e-07    3.227e-06    1.097e-03  
  7.0000e-03    3.831e-09    5.544e-07    4.074e-06    1.013e-03  
  8.0000e-03    4.395e-09    5.595e-07    4.698e-06    8.467e-04  
  9.0000e-03    4.966e-09    5.648e-07    5.087e-06    6.239e-04  
  1.0000e-02    5.542e-09    5.703e-07    5.321e-06    3.886e-04  
  1.1000e-02    6.124e-09    5.760e-07    5.509e-06    2.345e-04  
  1.2000e-02    6.713e-09    5.821e-07    5.749e-06    1.883e-04  
  1.3000e-02    7.309e-09    5.887e-07    6.107e-06    2.398e-04  
  1.4000e-02    7.912e-09    5.960e-07    6.608e-06    3.579e-04  
  1.5000e-02    8.525e-09    6.039e-07    7.210e-06    5.009e-04  
  1.6000e-02    9.147e-09    6.125e-07    7.907e-06    6.022e-04  
  1.7000e-02    9.779e-09    6.220e-07    8.656e-06    6.963e-04  
  1.8000e-02    1.042e-08    6.322e-07    9.434e-06    7.496e-04  
  1.9000e-02    1.108e-08    6.432e-07    1.025e-05    7.780e-04  
  2.0000e-02    1.175e-08    6.551e-07    1.104e-05    8.118e-04  
  2.1000e-02    1.243e-08    6.678e-07    1.187e-05    7.923e-04  
  2.2000e-02    1.312e-08    6.813e-07    1.268e-05    8.349e-04  
  2.3000e-02    1.383e-08    6.956e-07    1.351e-05    8.029e-04  
  2.4000e-02    1.456e-08    7.108e-07    1.434e-05    8.349e-04  
  2.5000e-02    1.530e-08    7.268e-07    1.517e-05    8.242e-04  
  2.6000e-02    1.606e-08    7.437e-07    1.603e-05    8.384e-04  
  2.7000e-02    1.685e-08    7.614e-07    1.687e-05    8.527e-04  
  2.8000e-02    1.764e-08    7.801e-07    1.775e-05    8.455e-04  
  2.9000e-02    1.846e-08    7.996e-07    1.863e-05    8.740e-04  
  3.0000e-02    1.931e-08    8.201e-07    1.953e-05    8.882e-04  
  3.1000e-02    2.017e-08    8.414e-07    2.044e-05    8.988e-04  
  3.2000e-02    2.106e-08    8.638e-07    2.138e-05    9.024e-04  
  3.3000e-02    2.197e-08    8.871e-07    2.233e-05    9.450e-04  
  3.4000e-02    2.290e-08    9.113e-07    2.330e-05    9.450e-04  
  3.5000e-02    2.387e-08    9.367e-07    2.429e-05    9.770e-04  
  3.6000e-02    2.486e-08    9.630e-07    2.530e-05    9.877e-04  
  3.7000e-02    2.588e-08    9.904e-07    2.635e-05    1.013e-03  
  3.8000e-02    2.693e-08    1.019e-06    2.741e-05    1.052e-03  
  3.9000e-02    2.801e-08    1.049e-06    2.849e-05    1.059e-03  
  4.0000e-02    2.912e-08    1.079e-06    2.961e-05    1.080e-03  
  4.1000e-02    3.026e-08    1.111e-06    3.075e-05    1.116e-03  
  4.2000e-02    3.144e-08    1.144e-06    3.192e-05    1.144e-03  
  4.3000e-02    3.265e-08    1.179e-06    3.313e-05    1.172e-03  
  4.4000e-02    3.390e-08    1.214e-06    3.433e-05    1.201e-03  
  4.5000e-02    3.519e-08    1.251e-06    3.562e-05    1.208e-03  
  4.6000e-02    3.652e-08    1.289e-06    3.691e-05    1.286e-03  
  4.7000e-02    3.789e-08    1.329e-06    3.823e-05    1.286e-03  
  4.8000e-02    3.931e-08    1.370e-06    3.961e-05    1.322e-03  
  4.9000e-02    4.076e-08    1.412e-06    4.097e-05    1.386e-03  
  5.0000e-02    4.226e-08    1.456e-06    4.243e-05    1.357e-03  
  5.1000e-02    4.381e-08    1.502e-06    4.390e-05    1.464e-03  
  5.2000e-02    4.541e-08    1.549e-06    4.542e-05    1.471e-03  
  5.3000e-02    4.706e-08    1.597e-06    4.695e-05    1.521e-03  
  5.4000e-02    4.876e-08    1.647e-06    4.859e-05    1.528e-03  
  5.5000e-02    5.051e-08    1.699e-06    5.019e-05    1.634e-03  
  5.6000e-02    5.232e-08    1.753e-06    5.191e-05    1.606e-03  
  5.7000e-02    5.418e-08    1.808e-06    5.364e-05    1.720e-03  
  5.8000e-02    5.611e-08    1.866e-06    5.539e-05    1.727e-03  
  5.9000e-02    5.809e-08    1.925e-06    5.727e-05    1.748e-03  
  6.0000e-02    6.014e-08    1.986e-06    5.910e-05    1.883e-03  
  6.1000e-02    6.226e-08    2.049e-06    6.107e-05    1.826e-03  
  6.2000e-02    6.444e-08    2.114e-06    6.305e-05    1.975e-03  
  6.3000e-02    6.669e-08    2.181e-06    6.509e-05    1.975e-03  
  6.4000e-02    6.901e-08    2.251e-06    6.719e-05    2.039e-03  
  6.5000e-02    7.141e-08    2.322e-06    6.933e-05    2.103e-03  
  6.6000e-02    7.388e-08    2.396e-06    7.158e-05    2.139e-03  
  6.7000e-02    7.643e-08    2.472e-06    7.382e-05    2.252e-03  
  6.8000e-02    7.906e-08    2.551e-06    7.618e-05    2.238e-03  
  6.9000e-02    8.178e-08    2.632e-06    7.860e-05    2.366e-03  
  7.0000e-02    8.458e-08    2.715e-06    8.102e-05    2.416e-03  
  7.1000e-02    8.747e-08    2.801e-06    8.356e-05    2.416e-03  
  7.2000e-02    9.045e-08    2.890e-06    8.617e-05    2.544e-03  
  7.3000e-02    9.353e-08    2.982e-06    8.882e-05    2.615e-03  
  7.4000e-02    9.670e-08    3.076e-06    9.155e-05    2.643e-03  
  7.5000e-02    9.997e-08    3.173e-06    9.433e-05    2.728e-03  
  7.6000e-02    1.033e-07    3.273e-06    9.717e-05    2.785e-03  
  7.7000e-02    1.068e-07    3.377e-06    1.001e-04    2.842e-03  
  7.8000e-02    1.104e-07    3.483e-06    1.031e-04    2.956e-03  
  7.9000e-02    1.141e-07    3.592e-06    1.061e-04    2.970e-03  
  8.0000e-02    1.179e-07    3.704e-06    1.093e-04    3.027e-03  
  8.1000e-02    1.219e-07    3.820e-06    1.125e-04    3.155e-03  
  8.2000e-02    1.259e-07    3.939e-06    1.156e-04    3.183e-03  
  8.3000e-02    1.301e-07    4.061e-06    1.190e-04    3.169e-03  
  8.4000e-02    1.345e-07    4.187e-06    1.223e-04    3.396e-03  
  8.5000e-02    1.389e-07    4.316e-06    1.258e-04    3.268e-03  
  8.6000e-02    1.435e-07    4.449e-06    1.292e-04    3.496e-03  
  8.7000e-02    1.482e-07    4.586e-06    1.327e-04    3.439e-03  
  8.8000e-02    1.531e-07    4.725e-06    1.364e-04    3.510e-03  
  8.9000e-02    1.581e-07    4.869e-06    1.400e-04    3.624e-03  
  9.0000e-02    1.633e-07    5.017e-06    1.437e-04    3.595e-03  
  9.1000e-02    1.686e-07    5.168e-06    1.474e-04    3.709e-03  
  9.2000e-02    1.741e-07    5.323e-06    1.512e-04    3.709e-03  
  9.3000e-02    1.797e-07    5.482e-06    1.550e-04    3.794e-03  
  9.4000e-02    1.855e-07    5.644e-06    1.588e-04    3.809e-03  
  9.5000e-02    1.915e-07    5.811e-06    1.628e-04    3.865e-03  
  9.6000e-02    1.977e-07    5.982e-06    1.667e-04    3.922e-03  
  9.7000e-02    2.040e-07    6.156e-06    1.707e-04    3.908e-03  
  9.8000e-02    2.105e-07    6.335e-06    1.747e-04    4.036e-03  
  9.9000e-02    2.172e-07    6.518e-06    1.788e-04    3.951e-03  
    0.10000     2.241e-07    6.705e-06    1.828e-04    4.107e-03  
y
x

        volt    param      
                    gx4    
   -0.10000       0.       
 -9.9000e-02      0.       
 -9.8000e-02      0.       
 -9.7000e-02      0.       
 -9.6000e-02   -2.239e+05  
 -9.5000e-02    6.787e+05  
 -9.4000e-02   -6.858e+05  
 -9.3000e-02    2.310e+05  
 -9.2000e-02      0.1137   
 -9.1000e-02   -9.948e-02  
 -9.0000e-02     -0.1279   
 -8.9000e-02      0.1137   
 -8.8000e-02   -8.527e-02  
 -8.7000e-02   -5.684e-02  
 -8.6000e-02   -4.263e-02  
 -8.5000e-02   -7.105e-02  
 -8.4000e-02    4.263e-02  
 -8.3000e-02   -7.105e-02  
 -8.2000e-02   -8.527e-02  
 -8.1000e-02   -2.842e-02  
 -8.0000e-02   -4.263e-02  
 -7.9000e-02   -7.105e-02  
 -7.8000e-02   -2.842e-02  
 -7.7000e-02   -4.263e-02  
 -7.6000e-02   -9.948e-02  
 -7.5000e-02   -5.684e-02  
 -7.4000e-02   -1.421e-02  
 -7.3000e-02   -8.527e-02  
 -7.2000e-02   -5.684e-02  
 -7.1000e-02   -8.527e-02  
 -7.0000e-02   -4.263e-02  
 -6.9000e-02   -7.105e-02  
 -6.8000e-02   -5.684e-02  
 -6.7000e-02   -4.263e-02  
 -6.6000e-02     -0.1421   
 -6.5000e-02    1.421e-02  
 -6.4000e-02     -0.1137   
 -6.3000e-02   -9.948e-02  
 -6.2000e-02    8.527e-02  
 -6.1000e-02     -0.2274   
 -6.0000e-02    7.105e-03  
 -5.9000e-02   -5.684e-02  
 -5.8000e-02   -9.237e-02  
 -5.7000e-02   -2.132e-02  
 -5.6000e-02     -0.1066   
 -5.5000e-02   -2.842e-02  
 -5.4000e-02   -5.684e-02  
 -5.3000e-02   -4.974e-02  
 -5.2000e-02   -7.105e-02  
 -5.1000e-02   -4.974e-02  
 -5.0000e-02   -2.842e-02  
 -4.9000e-02   -7.816e-02  
 -4.8000e-02   -3.553e-02  
 -4.7000e-02   -5.684e-02  
 -4.6000e-02   -2.132e-02  
 -4.5000e-02   -6.395e-02  
 -4.4000e-02   -3.553e-02  
 -4.3000e-02   -3.553e-02  
 -4.2000e-02   -7.105e-02  
 -4.1000e-02   -1.017e-11  
 -4.0000e-02   -2.842e-02  
 -3.9000e-02     -0.1066   
 -3.8000e-02    4.974e-02  
 -3.7000e-02   -7.816e-02  
 -3.6000e-02   -4.974e-02  
 -3.5000e-02    2.842e-02  
 -3.4000e-02     -0.1137   
 -3.3000e-02    5.684e-02  
 -3.2000e-02   -8.527e-02  
 -3.1000e-02   -1.421e-02  
 -3.0000e-02   -1.421e-02  
 -2.9000e-02   -4.263e-02  
 -2.8000e-02   -7.105e-03  
 -2.7000e-02   -5.329e-02  
 -2.6000e-02    1.066e-02  
 -2.5000e-02   -4.974e-02  
 -2.4000e-02    1.066e-02  
 -2.3000e-02   -6.040e-02  
 -2.2000e-02    1.066e-02  
 -2.1000e-02   -3.197e-02  
 -2.0000e-02   -1.066e-02  
 -1.9000e-02   -2.842e-02  
 -1.8000e-02   -7.105e-03  
 -1.7000e-02   -2.132e-02  
 -1.6000e-02   -3.553e-03  
 -1.5000e-02   -4.263e-02  
 -1.4000e-02    1.776e-02  
 -1.3000e-02   -3.197e-02  
 -1.2000e-02    8.882e-03  
 -1.1000e-02   -4.263e-02  
 -1.0000e-02    1.066e-02  
 -9.0000e-03   -1.421e-02  
 -8.0000e-03   -1.243e-02  
 -7.0000e-03   -3.553e-03  
 -6.0000e-03   -1.599e-02  
 -5.0000e-03   -7.589e-16  
 -4.0000e-03   -1.066e-02  
 -3.0000e-03   -5.329e-03  
 -2.0000e-03   -2.665e-03  
 -1.0000e-03   -1.066e-02  
    0.          2.665e-03  
  1.0000e-03   -7.994e-03  
  2.0000e-03   -1.554e-03  
  3.0000e-03    3.331e-04  
  4.0000e-03   -4.441e-03  
  5.0000e-03    7.949e-02  
  6.0000e-03      0.3153   
  7.0000e-03    5.851e-02  
  8.0000e-03   -8.349e-02  
  9.0000e-03     -0.1668   
  1.0000e-02     -0.2227   
  1.1000e-02     -0.2354   
  1.2000e-02     -0.1541   
  1.3000e-02   -4.619e-02  
  1.4000e-02    5.151e-02  
  1.5000e-02      0.1181   
  1.6000e-02      0.1430   
  1.7000e-02      0.1013   
  1.8000e-02    9.415e-02  
  1.9000e-02    5.329e-02  
  2.0000e-02    2.842e-02  
  2.1000e-02    3.375e-02  
  2.2000e-02   -1.954e-02  
  2.3000e-02    4.263e-02  
  2.4000e-02   -3.197e-02  
  2.5000e-02    3.197e-02  
  2.6000e-02   -1.066e-02  
  2.7000e-02    1.421e-02  
  2.8000e-02    1.421e-02  
  2.9000e-02   -7.105e-03  
  3.0000e-02    2.842e-02  
  3.1000e-02    1.421e-02  
  3.2000e-02    1.066e-02  
  3.3000e-02    3.553e-03  
  3.4000e-02    4.263e-02  
  3.5000e-02    3.361e-15  
  3.6000e-02    3.197e-02  
  3.7000e-02    1.066e-02  
  3.8000e-02    2.487e-02  
  3.9000e-02    3.908e-02  
  4.0000e-02    7.105e-03  
  4.1000e-02    2.132e-02  
  4.2000e-02    3.553e-02  
  4.3000e-02    2.842e-02  
  4.4000e-02    2.842e-02  
  4.5000e-02    2.842e-02  
  4.6000e-02    7.105e-03  
  4.7000e-02    7.816e-02  
  4.8000e-02    3.275e-11  
  4.9000e-02    3.553e-02  
  5.0000e-02    6.395e-02  
  5.1000e-02   -2.842e-02  
  5.2000e-02      0.1066   
  5.3000e-02    7.105e-03  
  5.4000e-02    4.974e-02  
  5.5000e-02    7.105e-03  
  5.6000e-02      0.1066   
  5.7000e-02   -2.842e-02  
  5.8000e-02      0.1137   
  5.9000e-02    7.105e-03  
  6.0000e-02    2.132e-02  
  6.1000e-02      0.1350   
  6.2000e-02   -5.684e-02  
  6.3000e-02      0.1492   
  6.4000e-02      0.       
  6.5000e-02    6.395e-02  
  6.6000e-02    6.395e-02  
  6.7000e-02    3.553e-02  
  6.8000e-02      0.1137   
  6.9000e-02   -1.421e-02  
  7.0000e-02      0.1279   
  7.1000e-02    4.974e-02  
  7.2000e-02   -4.337e-13  
  7.3000e-02      0.1279   
  7.4000e-02    7.105e-02  
  7.5000e-02    2.842e-02  
  7.6000e-02    8.527e-02  
  7.7000e-02    5.684e-02  
  7.8000e-02    5.684e-02  
  7.9000e-02      0.1137   
  8.0000e-02    1.421e-02  
  8.1000e-02    5.684e-02  
  8.2000e-02      0.1279   
  8.3000e-02    2.842e-02  
  8.4000e-02   -1.421e-02  
  8.5000e-02      0.2274   
  8.6000e-02     -0.1279   
  8.7000e-02      0.2274   
  8.8000e-02   -5.684e-02  
  8.9000e-02    7.105e-02  
  9.0000e-02      0.1137   
  9.1000e-02   -2.842e-02  
  9.2000e-02      0.1137   
  9.3000e-02      0.       
  9.4000e-02    8.527e-02  
  9.5000e-02    1.421e-02  
  9.6000e-02    5.684e-02  
  9.7000e-02    5.684e-02  
  9.8000e-02   -1.421e-02  
  9.9000e-02      0.1279   
    0.10000    -8.527e-02  
y
-----------------------------------------------
 ******  
 *sample netlist for bsim6

  ******  dc transfer curves tnom=  25.000 temp=  25.000 *****

   *** source        0:vgate =    0.2000        ***

x

        volt    param        param        param        param      
                    ids          gx           gx2          gx3    
   -0.10000    -7.437e-06   -2.241e-06   -6.705e-05   -1.828e-03  
 -9.9000e-02   -7.347e-06   -7.661e-03   -8.946e-03     -0.2499   
 -9.8000e-02   -7.257e-06    9.043e-05     -7.6589      -8.8791   
 -9.7000e-02   -7.167e-06    8.993e-05      7.7516    -7.650e+03  
 -9.6000e-02   -7.078e-06    8.943e-05   -4.994e-04    1.541e+04  
 -9.5000e-02   -6.990e-06    8.895e-05   -4.945e-04   -7.752e+03  
 -9.4000e-02   -6.902e-06    8.846e-05   -4.895e-04    4.860e-03  
 -9.3000e-02   -6.814e-06    8.798e-05   -4.845e-04    4.988e-03  
 -9.2000e-02   -6.727e-06    8.751e-05   -4.794e-04    5.073e-03  
 -9.1000e-02   -6.641e-06    8.704e-05   -4.741e-04    5.087e-03  
 -9.0000e-02   -6.555e-06    8.657e-05   -4.689e-04    5.244e-03  
 -8.9000e-02   -6.469e-06    8.612e-05   -4.636e-04    5.201e-03  
 -8.8000e-02   -6.384e-06    8.566e-05   -4.582e-04    5.372e-03  
 -8.7000e-02   -6.299e-06    8.522e-05   -4.528e-04    5.357e-03  
 -8.6000e-02   -6.215e-06    8.477e-05   -4.473e-04    5.443e-03  
 -8.5000e-02   -6.131e-06    8.434e-05   -4.418e-04    5.471e-03  
 -8.4000e-02   -6.047e-06    8.391e-05   -4.362e-04    5.542e-03  
 -8.3000e-02   -5.964e-06    8.348e-05   -4.306e-04    5.528e-03  
 -8.2000e-02   -5.882e-06    8.306e-05   -4.250e-04    5.656e-03  
 -8.1000e-02   -5.799e-06    8.265e-05   -4.193e-04    5.571e-03  
 -8.0000e-02   -5.717e-06    8.224e-05   -4.136e-04    5.699e-03  
 -7.9000e-02   -5.636e-06    8.184e-05   -4.080e-04    5.684e-03  
 -7.8000e-02   -5.555e-06    8.144e-05   -4.022e-04    5.670e-03  
 -7.7000e-02   -5.474e-06    8.105e-05   -3.965e-04    5.713e-03  
 -7.6000e-02   -5.394e-06    8.067e-05   -3.908e-04    5.713e-03  
 -7.5000e-02   -5.314e-06    8.029e-05   -3.850e-04    5.727e-03  
 -7.4000e-02   -5.235e-06    7.991e-05   -3.794e-04    5.755e-03  
 -7.3000e-02   -5.155e-06    7.955e-05   -3.736e-04    5.656e-03  
 -7.2000e-02   -5.077e-06    7.918e-05   -3.680e-04    5.784e-03  
 -7.1000e-02   -4.998e-06    7.883e-05   -3.622e-04    5.613e-03  
 -7.0000e-02   -4.920e-06    7.848e-05   -3.566e-04    5.741e-03  
 -6.9000e-02   -4.842e-06    7.813e-05   -3.510e-04    5.699e-03  
 -6.8000e-02   -4.765e-06    7.779e-05   -3.453e-04    5.571e-03  
 -6.7000e-02   -4.688e-06    7.746e-05   -3.397e-04    5.713e-03  
 -6.6000e-02   -4.611e-06    7.713e-05   -3.341e-04    5.556e-03  
 -6.5000e-02   -4.534e-06    7.681e-05   -3.286e-04    5.599e-03  
 -6.4000e-02   -4.458e-06    7.649e-05   -3.230e-04    5.542e-03  
 -6.3000e-02   -4.382e-06    7.618e-05   -3.175e-04    5.542e-03  
 -6.2000e-02   -4.307e-06    7.587e-05   -3.121e-04    5.485e-03  
 -6.1000e-02   -4.231e-06    7.557e-05   -3.067e-04    5.478e-03  
 -6.0000e-02   -4.156e-06    7.527e-05   -3.012e-04    5.386e-03  
 -5.9000e-02   -4.082e-06    7.498e-05   -2.959e-04    5.443e-03  
 -5.8000e-02   -4.007e-06    7.470e-05   -2.905e-04    5.357e-03  
 -5.7000e-02   -3.933e-06    7.442e-05   -2.852e-04    5.343e-03  
 -5.6000e-02   -3.859e-06    7.414e-05   -2.800e-04    5.308e-03  
 -5.5000e-02   -3.786e-06    7.387e-05   -2.747e-04    5.251e-03  
 -5.4000e-02   -3.712e-06    7.361e-05   -2.695e-04    5.272e-03  
 -5.3000e-02   -3.639e-06    7.335e-05   -2.643e-04    5.194e-03  
 -5.2000e-02   -3.566e-06    7.310e-05   -2.592e-04    5.194e-03  
 -5.1000e-02   -3.494e-06    7.285e-05   -2.541e-04    5.159e-03  
 -5.0000e-02   -3.421e-06    7.260e-05   -2.489e-04    5.102e-03  
 -4.9000e-02   -3.349e-06    7.236e-05   -2.439e-04    5.151e-03  
 -4.8000e-02   -3.277e-06    7.213e-05   -2.388e-04    5.038e-03  
 -4.7000e-02   -3.206e-06    7.190e-05   -2.338e-04    5.073e-03  
 -4.6000e-02   -3.134e-06    7.168e-05   -2.287e-04    5.038e-03  
 -4.5000e-02   -3.063e-06    7.146e-05   -2.237e-04    5.024e-03  
 -4.4000e-02   -2.992e-06    7.124e-05   -2.187e-04    4.981e-03  
 -4.3000e-02   -2.921e-06    7.104e-05   -2.138e-04    5.002e-03  
 -4.2000e-02   -2.850e-06    7.083e-05   -2.088e-04    4.945e-03  
 -4.1000e-02   -2.780e-06    7.063e-05   -2.039e-04    4.960e-03  
 -4.0000e-02   -2.710e-06    7.044e-05   -1.990e-04    4.945e-03  
 -3.9000e-02   -2.640e-06    7.025e-05   -1.941e-04    4.896e-03  
 -3.8000e-02   -2.570e-06    7.007e-05   -1.892e-04    4.931e-03  
 -3.7000e-02   -2.500e-06    6.989e-05   -1.843e-04    4.910e-03  
 -3.6000e-02   -2.431e-06    6.971e-05   -1.794e-04    4.874e-03  
 -3.5000e-02   -2.361e-06    6.954e-05   -1.745e-04    4.903e-03  
 -3.4000e-02   -2.292e-06    6.938e-05   -1.696e-04    4.860e-03  
 -3.3000e-02   -2.223e-06    6.922e-05   -1.648e-04    4.881e-03  
 -3.2000e-02   -2.154e-06    6.906e-05   -1.600e-04    4.846e-03  
 -3.1000e-02   -2.085e-06    6.891e-05   -1.551e-04    4.846e-03  
 -3.0000e-02   -2.017e-06    6.877e-05   -1.503e-04    4.853e-03  
 -2.9000e-02   -1.948e-06    6.863e-05   -1.454e-04    4.828e-03  
 -2.8000e-02   -1.880e-06    6.849e-05   -1.406e-04    4.825e-03  
 -2.7000e-02   -1.812e-06    6.836e-05   -1.358e-04    4.814e-03  
 -2.6000e-02   -1.743e-06    6.823e-05   -1.310e-04    4.803e-03  
 -2.5000e-02   -1.675e-06    6.811e-05   -1.263e-04    4.786e-03  
 -2.4000e-02   -1.608e-06    6.799e-05   -1.215e-04    4.789e-03  
 -2.3000e-02   -1.540e-06    6.788e-05   -1.167e-04    4.757e-03  
 -2.2000e-02   -1.472e-06    6.778e-05   -1.120e-04    4.771e-03  
 -2.1000e-02   -1.405e-06    6.767e-05   -1.073e-04    4.714e-03  
 -2.0000e-02   -1.337e-06    6.757e-05   -1.026e-04    4.732e-03  
 -1.9000e-02   -1.270e-06    6.748e-05   -9.789e-05    4.707e-03  
 -1.8000e-02   -1.202e-06    6.739e-05   -9.323e-05    4.682e-03  
 -1.7000e-02   -1.135e-06    6.731e-05   -8.858e-05    4.661e-03  
 -1.6000e-02   -1.068e-06    6.723e-05   -8.395e-05    4.651e-03  
 -1.5000e-02   -1.001e-06    6.715e-05   -7.935e-05    4.626e-03  
 -1.4000e-02   -9.339e-07    6.708e-05   -7.478e-05    4.597e-03  
 -1.3000e-02   -8.669e-07    6.702e-05   -7.021e-05    4.572e-03  
 -1.2000e-02   -8.000e-07    6.696e-05   -6.568e-05    4.571e-03  
 -1.1000e-02   -7.331e-07    6.690e-05   -6.117e-05    4.526e-03  
 -1.0000e-02   -6.663e-07    6.685e-05   -5.669e-05    4.510e-03  
 -9.0000e-03   -5.996e-07    6.680e-05   -5.222e-05    4.484e-03  
 -8.0000e-03   -5.329e-07    6.676e-05   -4.778e-05    4.466e-03  
 -7.0000e-03   -4.662e-07    6.672e-05   -4.337e-05    4.444e-03  
 -6.0000e-03   -3.995e-07    6.668e-05   -3.896e-05    4.414e-03  
 -5.0000e-03   -3.329e-07    6.665e-05   -3.458e-05    4.406e-03  
 -4.0000e-03   -2.663e-07    6.663e-05   -3.022e-05    4.376e-03  
 -3.0000e-03   -1.997e-07    6.661e-05   -2.587e-05    4.364e-03  
 -2.0000e-03   -1.331e-07    6.659e-05   -2.154e-05    4.349e-03  
 -1.0000e-03   -6.656e-08    6.658e-05   -1.722e-05    4.334e-03  
    0.         -2.696e-22    6.657e-05   -1.290e-05    4.320e-03  
  1.0000e-03    6.656e-08    6.656e-05   -8.599e-06    4.316e-03  
  2.0000e-03    1.331e-07    6.656e-05   -4.298e-06    4.303e-03  
  3.0000e-03    1.997e-07    6.657e-05    2.587e-08    4.301e-03  
  4.0000e-03    2.663e-07    6.658e-05    4.451e-06    4.324e-03  
  5.0000e-03    3.329e-07    6.659e-05    8.897e-06    4.425e-03  
  6.0000e-03    3.995e-07    6.661e-05    1.332e-05    4.446e-03  
  7.0000e-03    4.662e-07    6.663e-05    1.770e-05    4.426e-03  
  8.0000e-03    5.329e-07    6.666e-05    2.201e-05    4.379e-03  
  9.0000e-03    5.996e-07    6.669e-05    2.626e-05    4.312e-03  
  1.0000e-02    6.664e-07    6.672e-05    3.047e-05    4.250e-03  
  1.1000e-02    7.332e-07    6.676e-05    3.469e-05    4.209e-03  
  1.2000e-02    8.000e-07    6.680e-05    3.892e-05    4.214e-03  
  1.3000e-02    8.669e-07    6.685e-05    4.323e-05    4.234e-03  
  1.4000e-02    9.339e-07    6.690e-05    4.758e-05    4.307e-03  
  1.5000e-02    1.001e-06    6.696e-05    5.200e-05    4.352e-03  
  1.6000e-02    1.068e-06    6.702e-05    5.646e-05    4.418e-03  
  1.7000e-02    1.135e-06    6.709e-05    6.096e-05    4.462e-03  
  1.8000e-02    1.202e-06    6.716e-05    6.549e-05    4.496e-03  
  1.9000e-02    1.270e-06    6.723e-05    7.005e-05    4.537e-03  
  2.0000e-02    1.337e-06    6.731e-05    7.462e-05    4.556e-03  
  2.1000e-02    1.405e-06    6.739e-05    7.923e-05    4.574e-03  
  2.2000e-02    1.472e-06    6.748e-05    8.385e-05    4.603e-03  
  2.3000e-02    1.540e-06    6.758e-05    8.849e-05    4.629e-03  
  2.4000e-02    1.608e-06    6.767e-05    9.316e-05    4.633e-03  
  2.5000e-02    1.675e-06    6.778e-05    9.782e-05    4.668e-03  
  2.6000e-02    1.743e-06    6.788e-05    1.025e-04    4.668e-03  
  2.7000e-02    1.812e-06    6.800e-05    1.072e-04    4.700e-03  
  2.8000e-02    1.880e-06    6.811e-05    1.120e-04    4.707e-03  
  2.9000e-02    1.948e-06    6.823e-05    1.167e-04    4.729e-03  
  3.0000e-02    2.017e-06    6.836e-05    1.215e-04    4.750e-03  
  3.1000e-02    2.085e-06    6.849e-05    1.262e-04    4.746e-03  
  3.2000e-02    2.154e-06    6.863e-05    1.310e-04    4.793e-03  
  3.3000e-02    2.223e-06    6.877e-05    1.358e-04    4.757e-03  
  3.4000e-02    2.292e-06    6.891e-05    1.406e-04    4.810e-03  
  3.5000e-02    2.361e-06    6.906e-05    1.454e-04    4.796e-03  
  3.6000e-02    2.431e-06    6.922e-05    1.503e-04    4.828e-03  
  3.7000e-02    2.500e-06    6.938e-05    1.551e-04    4.810e-03  
  3.8000e-02    2.570e-06    6.954e-05    1.599e-04    4.853e-03  
  3.9000e-02    2.640e-06    6.971e-05    1.648e-04    4.817e-03  
  4.0000e-02    2.710e-06    6.989e-05    1.696e-04    4.874e-03  
  4.1000e-02    2.780e-06    7.007e-05    1.745e-04    4.853e-03  
  4.2000e-02    2.851e-06    7.025e-05    1.794e-04    4.860e-03  
  4.3000e-02    2.921e-06    7.044e-05    1.843e-04    4.867e-03  
  4.4000e-02    2.992e-06    7.063e-05    1.892e-04    4.917e-03  
  4.5000e-02    3.063e-06    7.083e-05    1.941e-04    4.860e-03  
  4.6000e-02    3.134e-06    7.104e-05    1.990e-04    4.910e-03  
  4.7000e-02    3.206e-06    7.125e-05    2.039e-04    4.917e-03  
  4.8000e-02    3.277e-06    7.146e-05    2.088e-04    4.952e-03  
  4.9000e-02    3.349e-06    7.168e-05    2.138e-04    4.874e-03  
  5.0000e-02    3.421e-06    7.190e-05    2.187e-04    5.024e-03  
  5.1000e-02    3.494e-06    7.213e-05    2.237e-04    4.903e-03  
  5.2000e-02    3.566e-06    7.236e-05    2.287e-04    5.016e-03  
  5.3000e-02    3.639e-06    7.260e-05    2.338e-04    4.974e-03  
  5.4000e-02    3.712e-06    7.285e-05    2.388e-04    5.052e-03  
  5.5000e-02    3.786e-06    7.310e-05    2.439e-04    5.002e-03  
  5.6000e-02    3.859e-06    7.335e-05    2.489e-04    5.080e-03  
  5.7000e-02    3.933e-06    7.361e-05    2.540e-04    5.052e-03  
  5.8000e-02    4.007e-06    7.387e-05    2.592e-04    5.137e-03  
  5.9000e-02    4.082e-06    7.414e-05    2.643e-04    5.109e-03  
  6.0000e-02    4.156e-06    7.442e-05    2.695e-04    5.173e-03  
  6.1000e-02    4.231e-06    7.470e-05    2.747e-04    5.180e-03  
  6.2000e-02    4.307e-06    7.498e-05    2.800e-04    5.187e-03  
  6.3000e-02    4.382e-06    7.527e-05    2.852e-04    5.272e-03  
  6.4000e-02    4.458e-06    7.557e-05    2.905e-04    5.272e-03  
  6.5000e-02    4.534e-06    7.587e-05    2.959e-04    5.294e-03  
  6.6000e-02    4.611e-06    7.618e-05    3.012e-04    5.350e-03  
  6.7000e-02    4.688e-06    7.649e-05    3.066e-04    5.350e-03  
  6.8000e-02    4.765e-06    7.681e-05    3.121e-04    5.414e-03  
  6.9000e-02    4.842e-06    7.713e-05    3.175e-04    5.436e-03  
  7.0000e-02    4.920e-06    7.746e-05    3.230e-04    5.457e-03  
  7.1000e-02    4.998e-06    7.779e-05    3.285e-04    5.500e-03  
  7.2000e-02    5.077e-06    7.813e-05    3.342e-04    5.485e-03  
  7.3000e-02    5.155e-06    7.848e-05    3.397e-04    5.642e-03  
  7.4000e-02    5.235e-06    7.883e-05    3.453e-04    5.500e-03  
  7.5000e-02    5.314e-06    7.918e-05    3.509e-04    5.656e-03  
  7.6000e-02    5.394e-06    7.955e-05    3.566e-04    5.585e-03  
  7.7000e-02    5.474e-06    7.991e-05    3.623e-04    5.656e-03  
  7.8000e-02    5.555e-06    8.029e-05    3.679e-04    5.755e-03  
  7.9000e-02    5.636e-06    8.067e-05    3.737e-04    5.599e-03  
  8.0000e-02    5.718e-06    8.105e-05    3.793e-04    5.741e-03  
  8.1000e-02    5.799e-06    8.144e-05    3.851e-04    5.656e-03  
  8.2000e-02    5.882e-06    8.184e-05    3.908e-04    5.770e-03  
  8.3000e-02    5.964e-06    8.224e-05    3.965e-04    5.741e-03  
  8.4000e-02    6.047e-06    8.265e-05    4.022e-04    5.670e-03  
  8.5000e-02    6.131e-06    8.306e-05    4.079e-04    5.741e-03  
  8.6000e-02    6.215e-06    8.348e-05    4.136e-04    5.699e-03  
  8.7000e-02    6.299e-06    8.391e-05    4.193e-04    5.713e-03  
  8.8000e-02    6.384e-06    8.434e-05    4.250e-04    5.656e-03  
  8.9000e-02    6.469e-06    8.478e-05    4.306e-04    5.684e-03  
  9.0000e-02    6.555e-06    8.522e-05    4.362e-04    5.599e-03  
  9.1000e-02    6.641e-06    8.566e-05    4.418e-04    5.613e-03  
  9.2000e-02    6.727e-06    8.612e-05    4.473e-04    5.599e-03  
  9.3000e-02    6.814e-06    8.658e-05    4.528e-04    5.485e-03  
  9.4000e-02    6.902e-06    8.704e-05    4.582e-04    5.471e-03  
  9.5000e-02    6.990e-06    8.751e-05    4.636e-04    5.471e-03  
  9.6000e-02    7.078e-06    8.798e-05    4.689e-04    5.372e-03  
  9.7000e-02    7.167e-06    8.846e-05    4.742e-04    5.286e-03  
  9.8000e-02    7.257e-06    8.895e-05    4.794e-04    5.315e-03  
  9.9000e-02    7.347e-06    8.944e-05    4.845e-04    5.159e-03  
    0.10000     7.437e-06    8.993e-05    4.895e-04    5.144e-03  
y
x

        volt    param      
                    gx4    
   -0.10000    -4.107e-02  
 -9.9000e-02     -5.9353   
 -9.8000e-02   -248.0580   
 -9.7000e-02   -8.629e+03  
 -9.6000e-02   -7.641e+06  
 -9.5000e-02    2.306e+07  
 -9.4000e-02   -2.316e+07  
 -9.3000e-02    7.752e+06  
 -9.2000e-02      0.1279   
 -9.1000e-02    8.527e-02  
 -9.0000e-02    1.421e-02  
 -8.9000e-02      0.1563   
 -8.8000e-02   -4.263e-02  
 -8.7000e-02      0.1705   
 -8.6000e-02   -1.421e-02  
 -8.5000e-02    8.527e-02  
 -8.4000e-02    2.842e-02  
 -8.3000e-02    7.105e-02  
 -8.2000e-02   -1.421e-02  
 -8.1000e-02      0.1279   
 -8.0000e-02   -8.527e-02  
 -7.9000e-02      0.1279   
 -7.8000e-02   -1.421e-02  
 -7.7000e-02   -1.421e-02  
 -7.6000e-02    4.263e-02  
 -7.5000e-02    1.136e-09  
 -7.4000e-02    1.421e-02  
 -7.3000e-02    2.842e-02  
 -7.2000e-02   -9.948e-02  
 -7.1000e-02      0.1279   
 -7.0000e-02     -0.1705   
 -6.9000e-02      0.1279   
 -6.8000e-02   -4.263e-02  
 -6.7000e-02     -0.1279   
 -6.6000e-02      0.1421   
 -6.5000e-02     -0.1563   
 -6.4000e-02    4.263e-02  
 -6.3000e-02   -5.684e-02  
 -6.2000e-02      0.       
 -6.1000e-02   -5.684e-02  
 -6.0000e-02   -7.105e-03  
 -5.9000e-02   -9.237e-02  
 -5.8000e-02    5.684e-02  
 -5.7000e-02   -8.527e-02  
 -5.6000e-02   -1.421e-02  
 -5.5000e-02   -3.553e-02  
 -5.4000e-02   -5.684e-02  
 -5.3000e-02    2.132e-02  
 -5.2000e-02   -7.816e-02  
 -5.1000e-02    1.545e-09  
 -5.0000e-02   -3.553e-02  
 -4.9000e-02   -5.684e-02  
 -4.8000e-02    4.974e-02  
 -4.7000e-02     -0.1137   
 -4.6000e-02    3.553e-02  
 -4.5000e-02   -3.553e-02  
 -4.4000e-02   -1.421e-02  
 -4.3000e-02   -4.263e-02  
 -4.2000e-02    2.132e-02  
 -4.1000e-02   -5.684e-02  
 -4.0000e-02    1.421e-02  
 -3.9000e-02   -1.421e-02  
 -3.8000e-02   -4.974e-02  
 -3.7000e-02    3.553e-02  
 -3.6000e-02   -2.132e-02  
 -3.5000e-02   -3.553e-02  
 -3.4000e-02    2.842e-02  
 -3.3000e-02   -4.263e-02  
 -3.2000e-02    2.132e-02  
 -3.1000e-02   -3.553e-02  
 -3.0000e-02    2.689e-14  
 -2.9000e-02    7.105e-03  
 -2.8000e-02   -2.487e-02  
 -2.7000e-02   -3.553e-03  
 -2.6000e-02   -1.066e-02  
 -2.5000e-02   -1.066e-02  
 -2.4000e-02   -1.776e-02  
 -2.3000e-02    3.553e-03  
 -2.2000e-02   -3.197e-02  
 -2.1000e-02    1.421e-02  
 -2.0000e-02   -5.684e-02  
 -1.9000e-02    1.776e-02  
 -1.8000e-02   -2.487e-02  
 -1.7000e-02   -2.487e-02  
 -1.6000e-02   -2.132e-02  
 -1.5000e-02   -1.066e-02  
 -1.4000e-02   -2.487e-02  
 -1.3000e-02   -2.842e-02  
 -1.2000e-02   -2.487e-02  
 -1.1000e-02   -1.776e-03  
 -1.0000e-02   -4.441e-02  
 -9.0000e-03   -1.599e-02  
 -8.0000e-03   -2.665e-02  
 -7.0000e-03   -1.776e-02  
 -6.0000e-03   -2.132e-02  
 -5.0000e-03   -3.020e-02  
 -4.0000e-03   -7.994e-03  
 -3.0000e-03   -3.020e-02  
 -2.0000e-03   -1.243e-02  
 -1.0000e-03   -1.421e-02  
    0.         -1.554e-02  
  1.0000e-03   -1.421e-02  
  2.0000e-03   -3.997e-03  
  3.0000e-03   -1.266e-02  
  4.0000e-03   -2.220e-03  
  5.0000e-03    2.298e-02  
  6.0000e-03      0.1017   
  7.0000e-03    2.043e-02  
  8.0000e-03   -1.954e-02  
  9.0000e-03   -4.763e-02  
  1.0000e-02   -6.706e-02  
  1.1000e-02   -6.128e-02  
  1.2000e-02   -4.130e-02  
  1.3000e-02    4.441e-03  
  1.4000e-02    2.043e-02  
  1.5000e-02    7.283e-02  
  1.6000e-02    4.530e-02  
  1.7000e-02    6.573e-02  
  1.8000e-02    4.441e-02  
  1.9000e-02    3.375e-02  
  2.0000e-02    4.086e-02  
  2.1000e-02    1.954e-02  
  2.2000e-02    1.776e-02  
  2.3000e-02    2.842e-02  
  2.4000e-02    2.665e-02  
  2.5000e-02    3.553e-03  
  2.6000e-02    3.553e-02  
  2.7000e-02      0.       
  2.8000e-02    3.197e-02  
  2.9000e-02    7.105e-03  
  3.0000e-02    2.132e-02  
  3.1000e-02    2.132e-02  
  3.2000e-02   -3.553e-03  
  3.3000e-02    4.619e-02  
  3.4000e-02   -3.553e-02  
  3.5000e-02    5.329e-02  
  3.6000e-02   -1.421e-02  
  3.7000e-02    3.197e-02  
  3.8000e-02   -1.776e-02  
  3.9000e-02    4.263e-02  
  4.0000e-02   -3.553e-02  
  4.1000e-02    5.684e-02  
  4.2000e-02   -2.132e-02  
  4.3000e-02    7.105e-03  
  4.4000e-02    7.105e-03  
  4.5000e-02    4.974e-02  
  4.6000e-02   -5.684e-02  
  4.7000e-02    4.974e-02  
  4.8000e-02    7.105e-03  
  4.9000e-02    3.553e-02  
  5.0000e-02   -7.816e-02  
  5.1000e-02      0.1492   
  5.2000e-02     -0.1208   
  5.3000e-02      0.1137   
  5.4000e-02   -4.263e-02  
  5.5000e-02    7.816e-02  
  5.6000e-02   -4.974e-02  
  5.7000e-02    7.816e-02  
  5.8000e-02   -2.842e-02  
  5.9000e-02    8.527e-02  
  6.0000e-02   -2.842e-02  
  6.1000e-02    6.395e-02  
  6.2000e-02    7.105e-03  
  6.3000e-02    7.105e-03  
  6.4000e-02    8.527e-02  
  6.5000e-02      0.       
  6.6000e-02    2.132e-02  
  6.7000e-02    5.684e-02  
  6.8000e-02      0.       
  6.9000e-02    6.395e-02  
  7.0000e-02    2.132e-02  
  7.1000e-02    2.132e-02  
  7.2000e-02    4.263e-02  
  7.3000e-02   -1.421e-02  
  7.4000e-02      0.1563   
  7.5000e-02     -0.1421   
  7.6000e-02      0.1563   
  7.7000e-02   -7.105e-02  
  7.8000e-02    7.105e-02  
  7.9000e-02    9.948e-02  
  8.0000e-02     -0.1563   
  8.1000e-02      0.1421   
  8.2000e-02   -8.527e-02  
  8.3000e-02      0.1137   
  8.4000e-02   -2.842e-02  
  8.5000e-02   -7.105e-02  
  8.6000e-02    7.105e-02  
  8.7000e-02   -4.263e-02  
  8.8000e-02    1.421e-02  
  8.9000e-02   -5.684e-02  
  9.0000e-02    2.842e-02  
  9.1000e-02   -8.527e-02  
  9.2000e-02    1.421e-02  
  9.3000e-02   -1.421e-02  
  9.4000e-02     -0.1137   
  9.5000e-02   -1.421e-02  
  9.6000e-02   -5.378e-14  
  9.7000e-02   -9.948e-02  
  9.8000e-02   -8.527e-02  
  9.9000e-02    2.842e-02  
    0.10000      -0.1563   
y
-----------------------------------------------
 ******  
 *sample netlist for bsim6

  ******  dc transfer curves tnom=  25.000 temp=  25.000 *****

   *** source        0:vgate =    0.4000        ***

x

        volt    param        param        param        param      
                    ids          gx           gx2          gx3    
   -0.10000    -2.712e-05   -7.437e-05   -8.993e-04   -4.895e-03  
 -9.9000e-02   -2.686e-05   -3.456e-02     -0.1643      -1.3888   
 -9.8000e-02   -2.659e-05    2.671e-04    -34.4856    -163.4017   
 -9.7000e-02   -2.632e-05    2.672e-04     34.8271    -3.432e+04  
 -9.6000e-02   -2.605e-05    2.673e-04    1.179e-04    6.931e+04  
 -9.5000e-02   -2.579e-05    2.674e-04    1.170e-04   -3.482e+04  
 -9.4000e-02   -2.552e-05    2.676e-04    1.162e-04   -8.527e-04  
 -9.3000e-02   -2.525e-05    2.677e-04    1.153e-04   -7.674e-04  
 -9.2000e-02   -2.498e-05    2.678e-04    1.144e-04   -9.237e-04  
 -9.1000e-02   -2.471e-05    2.679e-04    1.135e-04   -9.379e-04  
 -9.0000e-02   -2.445e-05    2.680e-04    1.125e-04   -9.095e-04  
 -8.9000e-02   -2.418e-05    2.681e-04    1.114e-04   -9.805e-04  
 -8.8000e-02   -2.391e-05    2.682e-04    1.105e-04   -1.052e-03  
 -8.7000e-02   -2.364e-05    2.683e-04    1.094e-04   -9.521e-04  
 -8.6000e-02   -2.337e-05    2.684e-04    1.083e-04   -1.108e-03  
 -8.5000e-02   -2.310e-05    2.685e-04    1.073e-04   -1.066e-03  
 -8.4000e-02   -2.284e-05    2.686e-04    1.061e-04   -1.037e-03  
 -8.3000e-02   -2.257e-05    2.688e-04    1.050e-04   -1.180e-03  
 -8.2000e-02   -2.230e-05    2.689e-04    1.039e-04   -1.094e-03  
 -8.1000e-02   -2.203e-05    2.690e-04    1.027e-04   -1.094e-03  
 -8.0000e-02   -2.176e-05    2.691e-04    1.016e-04   -1.208e-03  
 -7.9000e-02   -2.149e-05    2.692e-04    1.005e-04   -1.108e-03  
 -7.8000e-02   -2.122e-05    2.693e-04    9.923e-05   -1.137e-03  
 -7.7000e-02   -2.095e-05    2.694e-04    9.811e-05   -1.222e-03  
 -7.6000e-02   -2.068e-05    2.694e-04    9.697e-05   -1.123e-03  
 -7.5000e-02   -2.041e-05    2.695e-04    9.572e-05   -1.137e-03  
 -7.4000e-02   -2.014e-05    2.696e-04    9.462e-05   -1.251e-03  
 -7.3000e-02   -1.987e-05    2.697e-04    9.346e-05   -1.108e-03  
 -7.2000e-02   -1.960e-05    2.698e-04    9.229e-05   -1.151e-03  
 -7.1000e-02   -1.933e-05    2.699e-04    9.115e-05   -1.180e-03  
 -7.0000e-02   -1.906e-05    2.700e-04    8.997e-05   -1.137e-03  
 -6.9000e-02   -1.879e-05    2.701e-04    8.889e-05   -1.180e-03  
 -6.8000e-02   -1.852e-05    2.702e-04    8.770e-05   -1.080e-03  
 -6.7000e-02   -1.825e-05    2.703e-04    8.660e-05   -1.194e-03  
 -6.6000e-02   -1.798e-05    2.703e-04    8.549e-05   -1.094e-03  
 -6.5000e-02   -1.771e-05    2.704e-04    8.441e-05   -1.108e-03  
 -6.4000e-02   -1.744e-05    2.705e-04    8.330e-05   -1.080e-03  
 -6.3000e-02   -1.717e-05    2.706e-04    8.224e-05   -1.108e-03  
 -6.2000e-02   -1.690e-05    2.707e-04    8.112e-05   -1.066e-03  
 -6.1000e-02   -1.663e-05    2.707e-04    8.013e-05   -1.116e-03  
 -6.0000e-02   -1.636e-05    2.708e-04    7.905e-05   -9.948e-04  
 -5.9000e-02   -1.609e-05    2.709e-04    7.806e-05   -1.080e-03  
 -5.8000e-02   -1.582e-05    2.710e-04    7.702e-05   -9.877e-04  
 -5.7000e-02   -1.554e-05    2.711e-04    7.602e-05   -1.044e-03  
 -5.6000e-02   -1.527e-05    2.711e-04    7.501e-05   -9.948e-04  
 -5.5000e-02   -1.500e-05    2.712e-04    7.407e-05   -1.009e-03  
 -5.4000e-02   -1.473e-05    2.713e-04    7.306e-05   -9.450e-04  
 -5.3000e-02   -1.446e-05    2.713e-04    7.213e-05   -1.009e-03  
 -5.2000e-02   -1.419e-05    2.714e-04    7.118e-05   -9.308e-04  
 -5.1000e-02   -1.392e-05    2.715e-04    7.023e-05   -9.450e-04  
 -5.0000e-02   -1.364e-05    2.716e-04    6.931e-05   -9.521e-04  
 -4.9000e-02   -1.337e-05    2.716e-04    6.841e-05   -9.237e-04  
 -4.8000e-02   -1.310e-05    2.717e-04    6.745e-05   -8.953e-04  
 -4.7000e-02   -1.283e-05    2.718e-04    6.659e-05   -9.592e-04  
 -4.6000e-02   -1.256e-05    2.718e-04    6.568e-05   -8.598e-04  
 -4.5000e-02   -1.229e-05    2.719e-04    6.475e-05   -9.166e-04  
 -4.4000e-02   -1.201e-05    2.719e-04    6.391e-05   -9.237e-04  
 -4.3000e-02   -1.174e-05    2.720e-04    6.298e-05   -8.384e-04  
 -4.2000e-02   -1.147e-05    2.721e-04    6.211e-05   -9.379e-04  
 -4.1000e-02   -1.120e-05    2.721e-04    6.121e-05   -8.669e-04  
 -4.0000e-02   -1.092e-05    2.722e-04    6.030e-05   -8.953e-04  
 -3.9000e-02   -1.065e-05    2.722e-04    5.941e-05   -9.095e-04  
 -3.8000e-02   -1.038e-05    2.723e-04    5.853e-05   -8.953e-04  
 -3.7000e-02   -1.011e-05    2.724e-04    5.758e-05   -8.811e-04  
 -3.6000e-02   -9.835e-06    2.724e-04    5.669e-05   -9.450e-04  
 -3.5000e-02   -9.563e-06    2.725e-04    5.573e-05   -8.882e-04  
 -3.4000e-02   -9.290e-06    2.725e-04    5.480e-05   -9.592e-04  
 -3.3000e-02   -9.018e-06    2.726e-04    5.384e-05   -9.379e-04  
 -3.2000e-02   -8.745e-06    2.726e-04    5.287e-05   -9.592e-04  
 -3.1000e-02   -8.472e-06    2.727e-04    5.186e-05   -9.663e-04  
 -3.0000e-02   -8.199e-06    2.727e-04    5.085e-05   -1.009e-03  
 -2.9000e-02   -7.927e-06    2.728e-04    4.983e-05   -1.009e-03  
 -2.8000e-02   -7.654e-06    2.728e-04    4.876e-05   -1.023e-03  
 -2.7000e-02   -7.381e-06    2.729e-04    4.767e-05   -1.073e-03  
 -2.6000e-02   -7.108e-06    2.729e-04    4.657e-05   -1.084e-03  
 -2.5000e-02   -6.835e-06    2.730e-04    4.542e-05   -1.101e-03  
 -2.4000e-02   -6.562e-06    2.730e-04    4.426e-05   -1.148e-03  
 -2.3000e-02   -6.289e-06    2.730e-04    4.306e-05   -1.169e-03  
 -2.2000e-02   -6.016e-06    2.731e-04    4.182e-05   -1.197e-03  
 -2.1000e-02   -5.742e-06    2.731e-04    4.056e-05   -1.236e-03  
 -2.0000e-02   -5.469e-06    2.732e-04    3.926e-05   -1.265e-03  
 -1.9000e-02   -5.196e-06    2.732e-04    3.791e-05   -1.300e-03  
 -1.8000e-02   -4.923e-06    2.732e-04    3.654e-05   -1.346e-03  
 -1.7000e-02   -4.649e-06    2.733e-04    3.512e-05   -1.371e-03  
 -1.6000e-02   -4.376e-06    2.733e-04    3.368e-05   -1.421e-03  
 -1.5000e-02   -4.103e-06    2.733e-04    3.219e-05   -1.439e-03  
 -1.4000e-02   -3.829e-06    2.734e-04    3.065e-05   -1.492e-03  
 -1.3000e-02   -3.556e-06    2.734e-04    2.909e-05   -1.533e-03  
 -1.2000e-02   -3.283e-06    2.734e-04    2.749e-05   -1.567e-03  
 -1.1000e-02   -3.009e-06    2.734e-04    2.585e-05   -1.597e-03  
 -1.0000e-02   -2.736e-06    2.735e-04    2.417e-05   -1.641e-03  
 -9.0000e-03   -2.462e-06    2.735e-04    2.246e-05   -1.680e-03  
 -8.0000e-03   -2.189e-06    2.735e-04    2.072e-05   -1.705e-03  
 -7.0000e-03   -1.915e-06    2.735e-04    1.894e-05   -1.746e-03  
 -6.0000e-03   -1.641e-06    2.735e-04    1.714e-05   -1.773e-03  
 -5.0000e-03   -1.368e-06    2.735e-04    1.531e-05   -1.807e-03  
 -4.0000e-03   -1.094e-06    2.736e-04    1.345e-05   -1.830e-03  
 -3.0000e-03   -8.208e-07    2.736e-04    1.157e-05   -1.858e-03  
 -2.0000e-03   -5.472e-07    2.736e-04    9.675e-06   -1.878e-03  
 -1.0000e-03   -2.736e-07    2.736e-04    7.758e-06   -1.898e-03  
    0.          4.015e-21    2.736e-04    5.831e-06   -1.917e-03  
  1.0000e-03    2.736e-07    2.736e-04    3.893e-06   -1.927e-03  
  2.0000e-03    5.472e-07    2.736e-04    1.949e-06   -1.938e-03  
  3.0000e-03    8.208e-07    2.736e-04    6.883e-09   -1.945e-03  
  4.0000e-03    1.094e-06    2.736e-04   -1.906e-06   -1.942e-03  
  5.0000e-03    1.368e-06    2.736e-04   -3.812e-06   -1.913e-03  
  6.0000e-03    1.641e-06    2.736e-04   -5.715e-06   -1.906e-03  
  7.0000e-03    1.915e-06    2.736e-04   -7.627e-06   -1.902e-03  
  8.0000e-03    2.189e-06    2.735e-04   -9.541e-06   -1.912e-03  
  9.0000e-03    2.462e-06    2.735e-04   -1.147e-05   -1.914e-03  
  1.0000e-02    2.736e-06    2.735e-04   -1.338e-05   -1.924e-03  
  1.1000e-02    3.009e-06    2.735e-04   -1.528e-05   -1.912e-03  
  1.2000e-02    3.283e-06    2.735e-04   -1.715e-05   -1.902e-03  
  1.3000e-02    3.556e-06    2.735e-04   -1.898e-05   -1.868e-03  
  1.4000e-02    3.829e-06    2.734e-04   -2.077e-05   -1.837e-03  
  1.5000e-02    4.103e-06    2.734e-04   -2.252e-05   -1.787e-03  
  1.6000e-02    4.376e-06    2.734e-04   -2.424e-05   -1.751e-03  
  1.7000e-02    4.649e-06    2.734e-04   -2.591e-05   -1.714e-03  
  1.8000e-02    4.923e-06    2.733e-04   -2.754e-05   -1.673e-03  
  1.9000e-02    5.196e-06    2.733e-04   -2.914e-05   -1.627e-03  
  2.0000e-02    5.469e-06    2.733e-04   -3.069e-05   -1.604e-03  
  2.1000e-02    5.742e-06    2.732e-04   -3.222e-05   -1.549e-03  
  2.2000e-02    6.016e-06    2.732e-04   -3.370e-05   -1.533e-03  
  2.3000e-02    6.289e-06    2.732e-04   -3.515e-05   -1.478e-03  
  2.4000e-02    6.562e-06    2.731e-04   -3.656e-05   -1.450e-03  
  2.5000e-02    6.835e-06    2.731e-04   -3.793e-05   -1.410e-03  
  2.6000e-02    7.108e-06    2.730e-04   -3.927e-05   -1.364e-03  
  2.7000e-02    7.381e-06    2.730e-04   -4.058e-05   -1.343e-03  
  2.8000e-02    7.654e-06    2.730e-04   -4.182e-05   -1.311e-03  
  2.9000e-02    7.927e-06    2.729e-04   -4.307e-05   -1.243e-03  
  3.0000e-02    8.199e-06    2.729e-04   -4.426e-05   -1.247e-03  
  3.1000e-02    8.472e-06    2.728e-04   -4.543e-05   -1.194e-03  
  3.2000e-02    8.745e-06    2.728e-04   -4.658e-05   -1.169e-03  
  3.3000e-02    9.018e-06    2.727e-04   -4.768e-05   -1.148e-03  
  3.4000e-02    9.290e-06    2.727e-04   -4.876e-05   -1.098e-03  
  3.5000e-02    9.563e-06    2.726e-04   -4.984e-05   -1.080e-03  
  3.6000e-02    9.835e-06    2.726e-04   -5.085e-05   -1.080e-03  
  3.7000e-02    1.011e-05    2.725e-04   -5.188e-05   -1.009e-03  
  3.8000e-02    1.038e-05    2.725e-04   -5.287e-05   -1.030e-03  
  3.9000e-02    1.065e-05    2.724e-04   -5.383e-05   -9.948e-04  
  4.0000e-02    1.092e-05    2.724e-04   -5.481e-05   -9.592e-04  
  4.1000e-02    1.120e-05    2.723e-04   -5.574e-05   -9.805e-04  
  4.2000e-02    1.147e-05    2.722e-04   -5.667e-05   -9.308e-04  
  4.3000e-02    1.174e-05    2.722e-04   -5.762e-05   -9.237e-04  
  4.4000e-02    1.201e-05    2.721e-04   -5.848e-05   -9.521e-04  
  4.5000e-02    1.229e-05    2.721e-04   -5.944e-05   -8.669e-04  
  4.6000e-02    1.256e-05    2.720e-04   -6.029e-05   -9.592e-04  
  4.7000e-02    1.283e-05    2.719e-04   -6.122e-05   -8.455e-04  
  4.8000e-02    1.310e-05    2.719e-04   -6.212e-05   -9.308e-04  
  4.9000e-02    1.337e-05    2.718e-04   -6.297e-05   -8.953e-04  
  5.0000e-02    1.364e-05    2.718e-04   -6.391e-05   -8.527e-04  
  5.1000e-02    1.392e-05    2.717e-04   -6.475e-05   -9.450e-04  
  5.2000e-02    1.419e-05    2.716e-04   -6.568e-05   -8.384e-04  
  5.3000e-02    1.446e-05    2.716e-04   -6.657e-05   -9.308e-04  
  5.4000e-02    1.473e-05    2.715e-04   -6.749e-05   -8.882e-04  
  5.5000e-02    1.500e-05    2.714e-04   -6.838e-05   -9.166e-04  
  5.6000e-02    1.527e-05    2.713e-04   -6.931e-05   -8.882e-04  
  5.7000e-02    1.554e-05    2.713e-04   -7.024e-05   -9.379e-04  
  5.8000e-02    1.582e-05    2.712e-04   -7.118e-05   -9.308e-04  
  5.9000e-02    1.609e-05    2.711e-04   -7.213e-05   -9.308e-04  
  6.0000e-02    1.636e-05    2.711e-04   -7.305e-05   -9.592e-04  
  6.1000e-02    1.663e-05    2.710e-04   -7.405e-05   -9.166e-04  
  6.2000e-02    1.690e-05    2.709e-04   -7.503e-05   -1.002e-03  
  6.3000e-02    1.717e-05    2.708e-04   -7.602e-05   -9.805e-04  
  6.4000e-02    1.744e-05    2.707e-04   -7.699e-05   -9.877e-04  
  6.5000e-02    1.771e-05    2.707e-04   -7.807e-05   -9.734e-04  
  6.6000e-02    1.798e-05    2.706e-04   -7.903e-05   -1.073e-03  
  6.7000e-02    1.825e-05    2.705e-04   -8.016e-05   -9.663e-04  
  6.8000e-02    1.852e-05    2.704e-04   -8.110e-05   -1.123e-03  
  6.9000e-02    1.879e-05    2.703e-04   -8.227e-05   -9.450e-04  
  7.0000e-02    1.906e-05    2.703e-04   -8.332e-05   -1.165e-03  
  7.1000e-02    1.933e-05    2.702e-04   -8.433e-05   -1.052e-03  
  7.2000e-02    1.960e-05    2.701e-04   -8.555e-05   -1.009e-03  
  7.3000e-02    1.987e-05    2.700e-04   -8.659e-05   -1.222e-03  
  7.4000e-02    2.014e-05    2.699e-04   -8.771e-05   -1.037e-03  
  7.5000e-02    2.041e-05    2.698e-04   -8.889e-05   -1.123e-03  
  7.6000e-02    2.068e-05    2.697e-04   -8.995e-05   -1.180e-03  
  7.7000e-02    2.095e-05    2.696e-04   -9.116e-05   -1.066e-03  
  7.8000e-02    2.122e-05    2.695e-04   -9.229e-05   -1.208e-03  
  7.9000e-02    2.149e-05    2.694e-04   -9.344e-05   -1.123e-03  
  8.0000e-02    2.176e-05    2.694e-04   -9.462e-05   -1.151e-03  
  8.1000e-02    2.203e-05    2.693e-04   -9.580e-05   -1.180e-03  
  8.2000e-02    2.230e-05    2.692e-04   -9.689e-05   -1.180e-03  
  8.3000e-02    2.257e-05    2.691e-04   -9.814e-05   -1.094e-03  
  8.4000e-02    2.284e-05    2.690e-04   -9.926e-05   -1.251e-03  
  8.5000e-02    2.310e-05    2.689e-04   -1.004e-04   -1.123e-03  
  8.6000e-02    2.337e-05    2.688e-04   -1.016e-04   -1.137e-03  
  8.7000e-02    2.364e-05    2.686e-04   -1.027e-04   -1.222e-03  
  8.8000e-02    2.391e-05    2.685e-04   -1.039e-04   -1.094e-03  
  8.9000e-02    2.418e-05    2.684e-04   -1.050e-04   -1.165e-03  
  9.0000e-02    2.445e-05    2.683e-04   -1.061e-04   -1.137e-03  
  9.1000e-02    2.471e-05    2.682e-04   -1.073e-04   -1.108e-03  
  9.2000e-02    2.498e-05    2.681e-04   -1.083e-04   -1.137e-03  
  9.3000e-02    2.525e-05    2.680e-04   -1.094e-04   -1.009e-03  
  9.4000e-02    2.552e-05    2.679e-04   -1.104e-04   -1.151e-03  
  9.5000e-02    2.579e-05    2.678e-04   -1.115e-04   -1.023e-03  
  9.6000e-02    2.605e-05    2.677e-04   -1.125e-04   -1.037e-03  
  9.7000e-02    2.632e-05    2.676e-04   -1.135e-04   -9.805e-04  
  9.8000e-02    2.659e-05    2.674e-04   -1.144e-04   -1.009e-03  
  9.9000e-02    2.686e-05    2.673e-04   -1.153e-04   -9.237e-04  
    0.10000     2.712e-05    2.672e-04   -1.162e-04   -9.521e-04  
y
x

        volt    param      
                    gx4    
   -0.10000    -5.144e-02  
 -9.9000e-02    -10.0398   
 -9.8000e-02   -1.384e+03  
 -9.7000e-02   -1.620e+05  
 -9.6000e-02   -3.415e+07  
 -9.5000e-02    1.036e+08  
 -9.4000e-02   -1.041e+08  
 -9.3000e-02    3.482e+07  
 -9.2000e-02    8.527e-02  
 -9.1000e-02     -0.1563   
 -9.0000e-02   -1.421e-02  
 -8.9000e-02    2.842e-02  
 -8.8000e-02   -7.105e-02  
 -8.7000e-02   -7.105e-02  
 -8.6000e-02    9.948e-02  
 -8.5000e-02     -0.1563   
 -8.4000e-02    4.263e-02  
 -8.3000e-02    2.842e-02  
 -8.2000e-02     -0.1421   
 -8.1000e-02    8.527e-02  
 -8.0000e-02      0.       
 -7.9000e-02     -0.1137   
 -7.8000e-02    9.948e-02  
 -7.7000e-02   -2.842e-02  
 -7.6000e-02   -8.527e-02  
 -7.5000e-02    9.948e-02  
 -7.4000e-02   -1.421e-02  
 -7.3000e-02     -0.1137   
 -7.2000e-02      0.1421   
 -7.1000e-02   -4.263e-02  
 -7.0000e-02   -2.842e-02  
 -6.9000e-02    4.263e-02  
 -6.8000e-02   -4.263e-02  
 -6.7000e-02    9.948e-02  
 -6.6000e-02     -0.1137   
 -6.5000e-02    9.948e-02  
 -6.4000e-02   -1.421e-02  
 -6.3000e-02    2.842e-02  
 -6.2000e-02   -2.842e-02  
 -6.1000e-02    4.263e-02  
 -6.0000e-02   -4.974e-02  
 -5.9000e-02      0.1208   
 -5.8000e-02   -8.527e-02  
 -5.7000e-02    9.237e-02  
 -5.6000e-02   -5.684e-02  
 -5.5000e-02    4.974e-02  
 -5.4000e-02   -1.421e-02  
 -5.3000e-02    6.395e-02  
 -5.2000e-02   -6.395e-02  
 -5.1000e-02    7.816e-02  
 -5.0000e-02   -1.421e-02  
 -4.9000e-02   -7.105e-03  
 -4.8000e-02    2.842e-02  
 -4.7000e-02    2.842e-02  
 -4.6000e-02   -6.395e-02  
 -4.5000e-02    9.948e-02  
 -4.4000e-02   -5.684e-02  
 -4.3000e-02   -7.105e-03  
 -4.2000e-02    8.527e-02  
 -4.1000e-02   -9.948e-02  
 -4.0000e-02    7.105e-02  
 -3.9000e-02   -2.842e-02  
 -3.8000e-02   -1.421e-02  
 -3.7000e-02    1.421e-02  
 -3.6000e-02    1.421e-02  
 -3.5000e-02   -6.395e-02  
 -3.4000e-02    5.684e-02  
 -3.3000e-02   -7.105e-02  
 -3.2000e-02    2.132e-02  
 -3.1000e-02   -2.132e-02  
 -3.0000e-02   -7.105e-03  
 -2.9000e-02   -4.263e-02  
 -2.8000e-02      0.       
 -2.7000e-02   -1.421e-02  
 -2.6000e-02   -4.974e-02  
 -2.5000e-02   -1.066e-02  
 -2.4000e-02   -1.776e-02  
 -2.3000e-02   -4.619e-02  
 -2.2000e-02   -2.132e-02  
 -2.1000e-02   -2.842e-02  
 -2.0000e-02   -3.908e-02  
 -1.9000e-02   -2.842e-02  
 -1.8000e-02   -3.553e-02  
 -1.7000e-02   -4.619e-02  
 -1.6000e-02   -2.487e-02  
 -1.5000e-02   -4.974e-02  
 -1.4000e-02   -1.776e-02  
 -1.3000e-02   -5.329e-02  
 -1.2000e-02   -4.086e-02  
 -1.1000e-02   -3.375e-02  
 -1.0000e-02   -3.020e-02  
 -9.0000e-03   -4.441e-02  
 -8.0000e-03   -3.908e-02  
 -7.0000e-03   -2.487e-02  
 -6.0000e-03   -4.086e-02  
 -5.0000e-03   -2.665e-02  
 -4.0000e-03   -3.375e-02  
 -3.0000e-03   -2.309e-02  
 -2.0000e-03   -2.842e-02  
 -1.0000e-03   -1.954e-02  
    0.         -2.043e-02  
  1.0000e-03   -1.910e-02  
  2.0000e-03   -9.548e-03  
  3.0000e-03   -1.099e-02  
  4.0000e-03   -7.105e-03  
  5.0000e-03    2.998e-03  
  6.0000e-03    2.887e-02  
  7.0000e-03    6.550e-03  
  8.0000e-03    3.997e-03  
  9.0000e-03   -9.659e-03  
  1.0000e-02   -2.442e-03  
  1.1000e-02   -9.770e-03  
  1.2000e-02    1.199e-02  
  1.3000e-02    1.066e-02  
  1.4000e-02    3.375e-02  
  1.5000e-02    3.109e-02  
  1.6000e-02    4.974e-02  
  1.7000e-02    3.553e-02  
  1.8000e-02    3.730e-02  
  1.9000e-02    4.086e-02  
  2.0000e-02    4.619e-02  
  2.1000e-02    2.309e-02  
  2.2000e-02    5.507e-02  
  2.3000e-02    1.599e-02  
  2.4000e-02    5.507e-02  
  2.5000e-02    2.842e-02  
  2.6000e-02    3.908e-02  
  2.7000e-02    4.619e-02  
  2.8000e-02    2.132e-02  
  2.9000e-02    3.197e-02  
  3.0000e-02    6.750e-02  
  3.1000e-02   -3.553e-03  
  3.2000e-02    5.329e-02  
  3.3000e-02    2.487e-02  
  3.4000e-02    2.132e-02  
  3.5000e-02    4.974e-02  
  3.6000e-02    1.776e-02  
  3.7000e-02    6.939e-15  
  3.8000e-02    7.105e-02  
  3.9000e-02   -2.132e-02  
  4.0000e-02    3.553e-02  
  4.1000e-02    3.553e-02  
  4.2000e-02   -2.132e-02  
  4.3000e-02    4.974e-02  
  4.4000e-02    7.105e-03  
  4.5000e-02   -2.842e-02  
  4.6000e-02    8.527e-02  
  4.7000e-02   -9.237e-02  
  4.8000e-02      0.1137   
  4.9000e-02   -8.527e-02  
  5.0000e-02    3.553e-02  
  5.1000e-02    4.263e-02  
  5.2000e-02   -9.237e-02  
  5.3000e-02      0.1066   
  5.4000e-02   -9.237e-02  
  5.5000e-02    4.263e-02  
  5.6000e-02   -2.842e-02  
  5.7000e-02    2.842e-02  
  5.8000e-02   -4.974e-02  
  5.9000e-02    7.105e-03  
  6.0000e-02      0.       
  6.1000e-02   -2.842e-02  
  6.2000e-02    4.263e-02  
  6.3000e-02   -8.527e-02  
  6.4000e-02    2.132e-02  
  6.5000e-02   -7.105e-03  
  6.6000e-02    1.421e-02  
  6.7000e-02   -9.948e-02  
  6.8000e-02      0.1066   
  6.9000e-02     -0.1563   
  7.0000e-02      0.1776   
  7.1000e-02     -0.2203   
  7.2000e-02      0.1137   
  7.3000e-02    4.263e-02  
  7.4000e-02     -0.2132   
  7.5000e-02      0.1847   
  7.6000e-02   -8.527e-02  
  7.7000e-02   -5.684e-02  
  7.8000e-02      0.1137   
  7.9000e-02     -0.1421   
  8.0000e-02    8.527e-02  
  8.1000e-02   -2.842e-02  
  8.2000e-02   -2.842e-02  
  8.3000e-02      0.       
  8.4000e-02    8.527e-02  
  8.5000e-02     -0.1563   
  8.6000e-02      0.1279   
  8.7000e-02   -1.421e-02  
  8.8000e-02   -8.527e-02  
  8.9000e-02      0.1279   
  9.0000e-02   -7.105e-02  
  9.1000e-02    2.842e-02  
  9.2000e-02    2.842e-02  
  9.3000e-02   -2.842e-02  
  9.4000e-02      0.1279   
  9.5000e-02     -0.1421   
  9.6000e-02      0.1279   
  9.7000e-02   -1.421e-02  
  9.8000e-02    5.684e-02  
  9.9000e-02   -2.842e-02  
    0.10000     8.527e-02  
y
-----------------------------------------------
 ******  
 *sample netlist for bsim6

  ******  dc transfer curves tnom=  25.000 temp=  25.000 *****

   *** source        0:vgate =    0.6000        ***

x

        volt    param        param        param        param      
                    ids          gx           gx2          gx3    
   -0.10000    -4.683e-05   -2.712e-04   -2.672e-03    1.162e-03  
 -9.9000e-02   -4.637e-05   -7.395e-02     -0.5384      -2.5558   
 -9.8000e-02   -4.591e-05    4.614e-04    -73.6820    -535.7586   
 -9.7000e-02   -4.545e-05    4.616e-04     74.4146    -7.314e+04  
 -9.6000e-02   -4.498e-05    4.618e-04    1.997e-04    1.481e+05  
 -9.5000e-02   -4.452e-05    4.620e-04    1.978e-04   -7.441e+04  
 -9.4000e-02   -4.406e-05    4.622e-04    1.957e-04   -1.947e-03  
 -9.3000e-02   -4.360e-05    4.623e-04    1.937e-04   -2.018e-03  
 -9.2000e-02   -4.313e-05    4.625e-04    1.918e-04   -2.018e-03  
 -9.1000e-02   -4.267e-05    4.627e-04    1.898e-04   -1.933e-03  
 -9.0000e-02   -4.221e-05    4.629e-04    1.878e-04   -1.990e-03  
 -8.9000e-02   -4.174e-05    4.631e-04    1.859e-04   -1.975e-03  
 -8.8000e-02   -4.128e-05    4.633e-04    1.840e-04   -1.876e-03  
 -8.7000e-02   -4.082e-05    4.635e-04    1.821e-04   -1.975e-03  
 -8.6000e-02   -4.035e-05    4.636e-04    1.802e-04   -1.876e-03  
 -8.5000e-02   -3.989e-05    4.638e-04    1.783e-04   -1.918e-03  
 -8.4000e-02   -3.943e-05    4.640e-04    1.764e-04   -1.918e-03  
 -8.3000e-02   -3.896e-05    4.642e-04    1.746e-04   -1.833e-03  
 -8.2000e-02   -3.850e-05    4.643e-04    1.727e-04   -1.862e-03  
 -8.1000e-02   -3.803e-05    4.645e-04    1.709e-04   -1.890e-03  
 -8.0000e-02   -3.757e-05    4.647e-04    1.690e-04   -1.791e-03  
 -7.9000e-02   -3.710e-05    4.648e-04    1.672e-04   -1.862e-03  
 -7.8000e-02   -3.664e-05    4.650e-04    1.654e-04   -1.776e-03  
 -7.7000e-02   -3.617e-05    4.652e-04    1.636e-04   -1.862e-03  
 -7.6000e-02   -3.571e-05    4.653e-04    1.618e-04   -1.762e-03  
 -7.5000e-02   -3.524e-05    4.655e-04    1.600e-04   -1.776e-03  
 -7.4000e-02   -3.477e-05    4.656e-04    1.583e-04   -1.805e-03  
 -7.3000e-02   -3.431e-05    4.658e-04    1.565e-04   -1.720e-03  
 -7.2000e-02   -3.384e-05    4.659e-04    1.549e-04   -1.791e-03  
 -7.1000e-02   -3.338e-05    4.661e-04    1.530e-04   -1.677e-03  
 -7.0000e-02   -3.291e-05    4.662e-04    1.513e-04   -1.833e-03  
 -6.9000e-02   -3.244e-05    4.664e-04    1.497e-04   -1.677e-03  
 -6.8000e-02   -3.198e-05    4.665e-04    1.479e-04   -1.663e-03  
 -6.7000e-02   -3.151e-05    4.667e-04    1.462e-04   -1.776e-03  
 -6.6000e-02   -3.104e-05    4.668e-04    1.445e-04   -1.705e-03  
 -6.5000e-02   -3.058e-05    4.670e-04    1.428e-04   -1.663e-03  
 -6.4000e-02   -3.011e-05    4.671e-04    1.412e-04   -1.720e-03  
 -6.3000e-02   -2.964e-05    4.672e-04    1.395e-04   -1.648e-03  
 -6.2000e-02   -2.917e-05    4.674e-04    1.378e-04   -1.705e-03  
 -6.1000e-02   -2.871e-05    4.675e-04    1.361e-04   -1.627e-03  
 -6.0000e-02   -2.824e-05    4.676e-04    1.345e-04   -1.727e-03  
 -5.9000e-02   -2.777e-05    4.678e-04    1.328e-04   -1.634e-03  
 -5.8000e-02   -2.730e-05    4.679e-04    1.312e-04   -1.677e-03  
 -5.7000e-02   -2.683e-05    4.680e-04    1.295e-04   -1.641e-03  
 -5.6000e-02   -2.637e-05    4.682e-04    1.278e-04   -1.663e-03  
 -5.5000e-02   -2.590e-05    4.683e-04    1.262e-04   -1.663e-03  
 -5.4000e-02   -2.543e-05    4.684e-04    1.245e-04   -1.656e-03  
 -5.3000e-02   -2.496e-05    4.685e-04    1.228e-04   -1.641e-03  
 -5.2000e-02   -2.449e-05    4.686e-04    1.212e-04   -1.691e-03  
 -5.1000e-02   -2.402e-05    4.688e-04    1.195e-04   -1.634e-03  
 -5.0000e-02   -2.355e-05    4.689e-04    1.179e-04   -1.670e-03  
 -4.9000e-02   -2.308e-05    4.690e-04    1.162e-04   -1.656e-03  
 -4.8000e-02   -2.262e-05    4.691e-04    1.145e-04   -1.691e-03  
 -4.7000e-02   -2.215e-05    4.692e-04    1.128e-04   -1.663e-03  
 -4.6000e-02   -2.168e-05    4.693e-04    1.112e-04   -1.698e-03  
 -4.5000e-02   -2.121e-05    4.694e-04    1.094e-04   -1.670e-03  
 -4.4000e-02   -2.074e-05    4.695e-04    1.077e-04   -1.727e-03  
 -4.3000e-02   -2.027e-05    4.696e-04    1.060e-04   -1.691e-03  
 -4.2000e-02   -1.980e-05    4.698e-04    1.043e-04   -1.727e-03  
 -4.1000e-02   -1.933e-05    4.699e-04    1.026e-04   -1.734e-03  
 -4.0000e-02   -1.886e-05    4.700e-04    1.008e-04   -1.727e-03  
 -3.9000e-02   -1.839e-05    4.700e-04    9.903e-05   -1.776e-03  
 -3.8000e-02   -1.792e-05    4.701e-04    9.722e-05   -1.755e-03  
 -3.7000e-02   -1.745e-05    4.702e-04    9.543e-05   -1.805e-03  
 -3.6000e-02   -1.698e-05    4.703e-04    9.360e-05   -1.798e-03  
 -3.5000e-02   -1.651e-05    4.704e-04    9.176e-05   -1.826e-03  
 -3.4000e-02   -1.604e-05    4.705e-04    8.990e-05   -1.840e-03  
 -3.3000e-02   -1.557e-05    4.706e-04    8.801e-05   -1.862e-03  
 -3.2000e-02   -1.509e-05    4.707e-04    8.608e-05   -1.883e-03  
 -3.1000e-02   -1.462e-05    4.708e-04    8.418e-05   -1.933e-03  
 -3.0000e-02   -1.415e-05    4.708e-04    8.221e-05   -1.904e-03  
 -2.9000e-02   -1.368e-05    4.709e-04    8.021e-05   -1.968e-03  
 -2.8000e-02   -1.321e-05    4.710e-04    7.823e-05   -2.000e-03  
 -2.7000e-02   -1.274e-05    4.711e-04    7.616e-05   -1.982e-03  
 -2.6000e-02   -1.227e-05    4.711e-04    7.409e-05   -2.068e-03  
 -2.5000e-02   -1.180e-05    4.712e-04    7.200e-05   -2.071e-03  
 -2.4000e-02   -1.133e-05    4.713e-04    6.985e-05   -2.089e-03  
 -2.3000e-02   -1.085e-05    4.713e-04    6.768e-05   -2.146e-03  
 -2.2000e-02   -1.038e-05    4.714e-04    6.549e-05   -2.171e-03  
 -2.1000e-02   -9.911e-06    4.715e-04    6.325e-05   -2.192e-03  
 -2.0000e-02   -9.440e-06    4.715e-04    6.098e-05   -2.245e-03  
 -1.9000e-02   -8.968e-06    4.716e-04    5.868e-05   -2.267e-03  
 -1.8000e-02   -8.496e-06    4.716e-04    5.632e-05   -2.302e-03  
 -1.7000e-02   -8.025e-06    4.717e-04    5.396e-05   -2.359e-03  
 -1.6000e-02   -7.553e-06    4.717e-04    5.154e-05   -2.363e-03  
 -1.5000e-02   -7.081e-06    4.718e-04    4.907e-05   -2.416e-03  
 -1.4000e-02   -6.609e-06    4.718e-04    4.660e-05   -2.466e-03  
 -1.3000e-02   -6.137e-06    4.719e-04    4.407e-05   -2.474e-03  
 -1.2000e-02   -5.665e-06    4.719e-04    4.152e-05   -2.533e-03  
 -1.1000e-02   -5.193e-06    4.719e-04    3.892e-05   -2.551e-03  
 -1.0000e-02   -4.721e-06    4.720e-04    3.630e-05   -2.592e-03  
 -9.0000e-03   -4.249e-06    4.720e-04    3.364e-05   -2.624e-03  
 -8.0000e-03   -3.777e-06    4.720e-04    3.095e-05   -2.663e-03  
 -7.0000e-03   -3.305e-06    4.721e-04    2.824e-05   -2.682e-03  
 -6.0000e-03   -2.833e-06    4.721e-04    2.550e-05   -2.718e-03  
 -5.0000e-03   -2.361e-06    4.721e-04    2.273e-05   -2.742e-03  
 -4.0000e-03   -1.889e-06    4.721e-04    1.994e-05   -2.766e-03  
 -3.0000e-03   -1.416e-06    4.721e-04    1.713e-05   -2.791e-03  
 -2.0000e-03   -9.443e-07    4.721e-04    1.430e-05   -2.811e-03  
 -1.0000e-03   -4.722e-07    4.722e-04    1.146e-05   -2.823e-03  
    0.         -1.173e-20    4.722e-04    8.606e-06   -2.847e-03  
  1.0000e-03    4.722e-07    4.722e-04    5.742e-06   -2.852e-03  
  2.0000e-03    9.443e-07    4.722e-04    2.872e-06   -2.864e-03  
  3.0000e-03    1.416e-06    4.722e-04    1.221e-09   -2.870e-03  
  4.0000e-03    1.889e-06    4.722e-04   -2.863e-06   -2.871e-03  
  5.0000e-03    2.361e-06    4.721e-04   -5.724e-06   -2.864e-03  
  6.0000e-03    2.833e-06    4.721e-04   -8.580e-06   -2.861e-03  
  7.0000e-03    3.305e-06    4.721e-04   -1.143e-05   -2.856e-03  
  8.0000e-03    3.777e-06    4.721e-04   -1.427e-05   -2.849e-03  
  9.0000e-03    4.249e-06    4.721e-04   -1.711e-05   -2.844e-03  
  1.0000e-02    4.721e-06    4.721e-04   -1.992e-05   -2.833e-03  
  1.1000e-02    5.193e-06    4.720e-04   -2.273e-05   -2.813e-03  
  1.2000e-02    5.665e-06    4.720e-04   -2.550e-05   -2.807e-03  
  1.3000e-02    6.137e-06    4.720e-04   -2.825e-05   -2.769e-03  
  1.4000e-02    6.609e-06    4.719e-04   -3.096e-05   -2.751e-03  
  1.5000e-02    7.081e-06    4.719e-04   -3.366e-05   -2.718e-03  
  1.6000e-02    7.553e-06    4.719e-04   -3.631e-05   -2.695e-03  
  1.7000e-02    8.025e-06    4.718e-04   -3.894e-05   -2.647e-03  
  1.8000e-02    8.496e-06    4.718e-04   -4.152e-05   -2.636e-03  
  1.9000e-02    8.968e-06    4.717e-04   -4.408e-05   -2.583e-03  
  2.0000e-02    9.440e-06    4.717e-04   -4.661e-05   -2.553e-03  
  2.1000e-02    9.911e-06    4.716e-04   -4.909e-05   -2.530e-03  
  2.2000e-02    1.038e-05    4.716e-04   -5.154e-05   -2.482e-03  
  2.3000e-02    1.085e-05    4.715e-04   -5.395e-05   -2.455e-03  
  2.4000e-02    1.133e-05    4.715e-04   -5.633e-05   -2.409e-03  
  2.5000e-02    1.180e-05    4.714e-04   -5.868e-05   -2.380e-03  
  2.6000e-02    1.227e-05    4.713e-04   -6.098e-05   -2.345e-03  
  2.7000e-02    1.274e-05    4.713e-04   -6.325e-05   -2.306e-03  
  2.8000e-02    1.321e-05    4.712e-04   -6.549e-05   -2.267e-03  
  2.9000e-02    1.368e-05    4.711e-04   -6.769e-05   -2.242e-03  
  3.0000e-02    1.415e-05    4.711e-04   -6.986e-05   -2.196e-03  
  3.1000e-02    1.462e-05    4.710e-04   -7.200e-05   -2.171e-03  
  3.2000e-02    1.509e-05    4.709e-04   -7.409e-05   -2.139e-03  
  3.3000e-02    1.557e-05    4.708e-04   -7.617e-05   -2.096e-03  
  3.4000e-02    1.604e-05    4.708e-04   -7.822e-05   -2.075e-03  
  3.5000e-02    1.651e-05    4.707e-04   -8.022e-05   -2.050e-03  
  3.6000e-02    1.698e-05    4.706e-04   -8.221e-05   -2.004e-03  
  3.7000e-02    1.745e-05    4.705e-04   -8.416e-05   -1.990e-03  
  3.8000e-02    1.792e-05    4.704e-04   -8.610e-05   -1.954e-03  
  3.9000e-02    1.839e-05    4.703e-04   -8.800e-05   -1.940e-03  
  4.0000e-02    1.886e-05    4.702e-04   -8.991e-05   -1.897e-03  
  4.1000e-02    1.933e-05    4.701e-04   -9.175e-05   -1.911e-03  
  4.2000e-02    1.980e-05    4.700e-04   -9.359e-05   -1.833e-03  
  4.3000e-02    2.027e-05    4.700e-04   -9.544e-05   -1.847e-03  
  4.4000e-02    2.074e-05    4.699e-04   -9.724e-05   -1.847e-03  
  4.5000e-02    2.121e-05    4.698e-04   -9.900e-05   -1.798e-03  
  4.6000e-02    2.168e-05    4.696e-04   -1.008e-04   -1.762e-03  
  4.7000e-02    2.215e-05    4.695e-04   -1.025e-04   -1.805e-03  
  4.8000e-02    2.262e-05    4.694e-04   -1.043e-04   -1.734e-03  
  4.9000e-02    2.308e-05    4.693e-04   -1.060e-04   -1.769e-03  
  5.0000e-02    2.355e-05    4.692e-04   -1.078e-04   -1.691e-03  
  5.1000e-02    2.402e-05    4.691e-04   -1.094e-04   -1.762e-03  
  5.2000e-02    2.449e-05    4.690e-04   -1.111e-04   -1.684e-03  
  5.3000e-02    2.496e-05    4.689e-04   -1.129e-04   -1.698e-03  
  5.4000e-02    2.543e-05    4.688e-04   -1.145e-04   -1.720e-03  
  5.5000e-02    2.590e-05    4.686e-04   -1.162e-04   -1.648e-03  
  5.6000e-02    2.637e-05    4.685e-04   -1.179e-04   -1.705e-03  
  5.7000e-02    2.683e-05    4.684e-04   -1.195e-04   -1.648e-03  
  5.8000e-02    2.730e-05    4.683e-04   -1.212e-04   -1.677e-03  
  5.9000e-02    2.777e-05    4.682e-04   -1.229e-04   -1.663e-03  
  6.0000e-02    2.824e-05    4.680e-04   -1.245e-04   -1.663e-03  
  6.1000e-02    2.871e-05    4.679e-04   -1.262e-04   -1.663e-03  
  6.2000e-02    2.917e-05    4.678e-04   -1.278e-04   -1.634e-03  
  6.3000e-02    2.964e-05    4.676e-04   -1.295e-04   -1.684e-03  
  6.4000e-02    3.011e-05    4.675e-04   -1.311e-04   -1.656e-03  
  6.5000e-02    3.058e-05    4.674e-04   -1.328e-04   -1.627e-03  
  6.6000e-02    3.104e-05    4.672e-04   -1.345e-04   -1.698e-03  
  6.7000e-02    3.151e-05    4.671e-04   -1.361e-04   -1.641e-03  
  6.8000e-02    3.198e-05    4.670e-04   -1.378e-04   -1.670e-03  
  6.9000e-02    3.244e-05    4.668e-04   -1.395e-04   -1.634e-03  
  7.0000e-02    3.291e-05    4.667e-04   -1.411e-04   -1.748e-03  
  7.1000e-02    3.338e-05    4.665e-04   -1.429e-04   -1.592e-03  
  7.2000e-02    3.384e-05    4.664e-04   -1.445e-04   -1.748e-03  
  7.3000e-02    3.431e-05    4.662e-04   -1.462e-04   -1.648e-03  
  7.4000e-02    3.477e-05    4.661e-04   -1.479e-04   -1.705e-03  
  7.5000e-02    3.524e-05    4.659e-04   -1.496e-04   -1.734e-03  
  7.6000e-02    3.571e-05    4.658e-04   -1.513e-04   -1.677e-03  
  7.7000e-02    3.617e-05    4.656e-04   -1.531e-04   -1.705e-03  
  7.8000e-02    3.664e-05    4.655e-04   -1.548e-04   -1.776e-03  
  7.9000e-02    3.710e-05    4.653e-04   -1.565e-04   -1.677e-03  
  8.0000e-02    3.757e-05    4.652e-04   -1.583e-04   -1.762e-03  
  8.1000e-02    3.803e-05    4.650e-04   -1.601e-04   -1.762e-03  
  8.2000e-02    3.850e-05    4.648e-04   -1.618e-04   -1.762e-03  
  8.3000e-02    3.896e-05    4.647e-04   -1.636e-04   -1.762e-03  
  8.4000e-02    3.943e-05    4.645e-04   -1.654e-04   -1.776e-03  
  8.5000e-02    3.989e-05    4.643e-04   -1.672e-04   -1.805e-03  
  8.6000e-02    4.035e-05    4.642e-04   -1.691e-04   -1.805e-03  
  8.7000e-02    4.082e-05    4.640e-04   -1.708e-04   -1.847e-03  
  8.8000e-02    4.128e-05    4.638e-04   -1.727e-04   -1.776e-03  
  8.9000e-02    4.174e-05    4.636e-04   -1.746e-04   -1.847e-03  
  9.0000e-02    4.221e-05    4.635e-04   -1.764e-04   -1.876e-03  
  9.1000e-02    4.267e-05    4.633e-04   -1.783e-04   -1.862e-03  
  9.2000e-02    4.313e-05    4.631e-04   -1.802e-04   -1.847e-03  
  9.3000e-02    4.360e-05    4.629e-04   -1.821e-04   -1.890e-03  
  9.4000e-02    4.406e-05    4.627e-04   -1.840e-04   -1.918e-03  
  9.5000e-02    4.452e-05    4.625e-04   -1.859e-04   -1.918e-03  
  9.6000e-02    4.498e-05    4.623e-04   -1.879e-04   -1.918e-03  
  9.7000e-02    4.545e-05    4.622e-04   -1.898e-04   -1.933e-03  
  9.8000e-02    4.591e-05    4.620e-04   -1.917e-04   -1.947e-03  
  9.9000e-02    4.637e-05    4.618e-04   -1.938e-04   -1.947e-03  
    0.10000     4.683e-05    4.616e-04   -1.957e-04   -2.004e-03  
y
x

        volt    param      
                    gx4    
   -0.10000     9.521e-03  
 -9.9000e-02      2.1139   
 -9.8000e-02   -2.557e+03  
 -9.7000e-02   -5.332e+05  
 -9.6000e-02   -7.260e+07  
 -9.5000e-02    2.212e+08  
 -9.4000e-02   -2.225e+08  
 -9.3000e-02    7.441e+07  
 -9.2000e-02   -7.105e-02  
 -9.1000e-02      0.       
 -9.0000e-02    8.527e-02  
 -8.9000e-02   -5.684e-02  
 -8.8000e-02    1.421e-02  
 -8.7000e-02    9.948e-02  
 -8.6000e-02   -9.948e-02  
 -8.5000e-02    9.948e-02  
 -8.4000e-02   -4.263e-02  
 -8.3000e-02      0.       
 -8.2000e-02    8.527e-02  
 -8.1000e-02   -2.842e-02  
 -8.0000e-02   -2.842e-02  
 -7.9000e-02    9.948e-02  
 -7.8000e-02   -7.105e-02  
 -7.7000e-02    8.527e-02  
 -7.6000e-02   -8.527e-02  
 -7.5000e-02    9.948e-02  
 -7.4000e-02   -1.421e-02  
 -7.3000e-02   -2.842e-02  
 -7.2000e-02    8.527e-02  
 -7.1000e-02   -7.105e-02  
 -7.0000e-02      0.1137   
 -6.9000e-02     -0.1563   
 -6.8000e-02      0.1563   
 -6.7000e-02    1.421e-02  
 -6.6000e-02     -0.1137   
 -6.5000e-02    7.105e-02  
 -6.4000e-02    4.263e-02  
 -6.3000e-02   -5.684e-02  
 -6.2000e-02    7.105e-02  
 -6.1000e-02   -5.684e-02  
 -6.0000e-02    7.816e-02  
 -5.9000e-02   -9.948e-02  
 -5.8000e-02    9.237e-02  
 -5.7000e-02   -4.263e-02  
 -5.6000e-02    3.553e-02  
 -5.5000e-02   -2.132e-02  
 -5.4000e-02    9.060e-13  
 -5.3000e-02    7.105e-03  
 -5.2000e-02    1.421e-02  
 -5.1000e-02   -4.974e-02  
 -5.0000e-02    5.684e-02  
 -4.9000e-02   -3.553e-02  
 -4.8000e-02    1.421e-02  
 -4.7000e-02   -3.553e-02  
 -4.6000e-02    2.842e-02  
 -4.5000e-02   -3.553e-02  
 -4.4000e-02    2.842e-02  
 -4.3000e-02   -5.684e-02  
 -4.2000e-02    3.553e-02  
 -4.1000e-02   -3.553e-02  
 -4.0000e-02   -7.105e-03  
 -3.9000e-02    7.105e-03  
 -3.8000e-02   -4.974e-02  
 -3.7000e-02    2.132e-02  
 -3.6000e-02   -4.974e-02  
 -3.5000e-02    7.105e-03  
 -3.4000e-02   -2.842e-02  
 -3.3000e-02   -1.421e-02  
 -3.2000e-02   -2.132e-02  
 -3.1000e-02   -2.132e-02  
 -3.0000e-02   -4.974e-02  
 -2.9000e-02    2.842e-02  
 -2.8000e-02   -6.395e-02  
 -2.7000e-02   -3.197e-02  
 -2.6000e-02    1.776e-02  
 -2.5000e-02   -8.527e-02  
 -2.4000e-02   -3.553e-03  
 -2.3000e-02   -1.776e-02  
 -2.2000e-02   -5.684e-02  
 -2.1000e-02   -2.487e-02  
 -2.0000e-02   -2.132e-02  
 -1.9000e-02   -5.329e-02  
 -1.8000e-02   -2.132e-02  
 -1.7000e-02   -3.553e-02  
 -1.6000e-02   -5.684e-02  
 -1.5000e-02   -3.553e-03  
 -1.4000e-02   -5.329e-02  
 -1.3000e-02   -4.974e-02  
 -1.2000e-02   -8.882e-03  
 -1.1000e-02   -5.862e-02  
 -1.0000e-02   -1.776e-02  
 -9.0000e-03   -4.086e-02  
 -8.0000e-03   -3.197e-02  
 -7.0000e-03   -3.908e-02  
 -6.0000e-03   -1.954e-02  
 -5.0000e-03   -3.553e-02  
 -4.0000e-03   -2.398e-02  
 -3.0000e-03   -2.398e-02  
 -2.0000e-03   -2.487e-02  
 -1.0000e-03   -2.043e-02  
    0.         -1.199e-02  
  1.0000e-03   -2.354e-02  
  2.0000e-03   -5.329e-03  
  3.0000e-03   -1.199e-02  
  4.0000e-03   -5.773e-03  
  5.0000e-03   -1.443e-03  
  6.0000e-03    6.883e-03  
  7.0000e-03    3.331e-03  
  8.0000e-03    5.329e-03  
  9.0000e-03    6.106e-03  
  1.0000e-02    5.551e-03  
  1.1000e-02    1.066e-02  
  1.2000e-02    2.043e-02  
  1.3000e-02    6.217e-03  
  1.4000e-02    3.730e-02  
  1.5000e-02    1.865e-02  
  1.6000e-02    3.286e-02  
  1.7000e-02    2.309e-02  
  1.8000e-02    4.796e-02  
  1.9000e-02    1.066e-02  
  2.0000e-02    5.329e-02  
  2.1000e-02    3.020e-02  
  2.2000e-02    2.309e-02  
  2.3000e-02    4.796e-02  
  2.4000e-02    2.665e-02  
  2.5000e-02    4.619e-02  
  2.6000e-02    2.842e-02  
  2.7000e-02    3.553e-02  
  2.8000e-02    3.908e-02  
  2.9000e-02    3.908e-02  
  3.0000e-02    2.487e-02  
  3.1000e-02    4.619e-02  
  3.2000e-02    2.487e-02  
  3.3000e-02    3.197e-02  
  3.4000e-02    4.263e-02  
  3.5000e-02    2.132e-02  
  3.6000e-02    2.487e-02  
  3.7000e-02    4.619e-02  
  3.8000e-02    1.421e-02  
  3.9000e-02    3.553e-02  
  4.0000e-02    1.421e-02  
  4.1000e-02    4.263e-02  
[...]
 -8.2000e-02   -5.894e-05    7.142e-04    1.552e-04   -1.577e-03  
 -8.1000e-02   -5.823e-05    7.144e-04    1.536e-04   -1.535e-03  
 -8.0000e-02   -5.751e-05    7.145e-04    1.521e-04   -1.620e-03  
 -7.9000e-02   -5.680e-05    7.147e-04    1.505e-04   -1.506e-03  
 -7.8000e-02   -5.608e-05    7.148e-04    1.489e-04   -1.549e-03  
 -7.7000e-02   -5.537e-05    7.150e-04    1.474e-04   -1.620e-03  
 -7.6000e-02   -5.465e-05    7.151e-04    1.458e-04   -1.506e-03  
 -7.5000e-02   -5.394e-05    7.152e-04    1.443e-04   -1.606e-03  
 -7.4000e-02   -5.322e-05    7.154e-04    1.427e-04   -1.521e-03  
 -7.3000e-02   -5.250e-05    7.155e-04    1.411e-04   -1.577e-03  
 -7.2000e-02   -5.179e-05    7.157e-04    1.396e-04   -1.606e-03  
 -7.1000e-02   -5.107e-05    7.158e-04    1.380e-04   -1.464e-03  
 -7.0000e-02   -5.036e-05    7.159e-04    1.364e-04   -1.648e-03  
 -6.9000e-02   -4.964e-05    7.161e-04    1.349e-04   -1.549e-03  
 -6.8000e-02   -4.892e-05    7.162e-04    1.333e-04   -1.549e-03  
 -6.7000e-02   -4.821e-05    7.163e-04    1.317e-04   -1.577e-03  
 -6.6000e-02   -4.749e-05    7.165e-04    1.301e-04   -1.563e-03  
 -6.5000e-02   -4.677e-05    7.166e-04    1.286e-04   -1.592e-03  
 -6.4000e-02   -4.606e-05    7.167e-04    1.270e-04   -1.535e-03  
 -6.3000e-02   -4.534e-05    7.168e-04    1.254e-04   -1.620e-03  
 -6.2000e-02   -4.462e-05    7.170e-04    1.238e-04   -1.563e-03  
 -6.1000e-02   -4.391e-05    7.171e-04    1.222e-04   -1.570e-03  
 -6.0000e-02   -4.319e-05    7.172e-04    1.207e-04   -1.599e-03  
 -5.9000e-02   -4.247e-05    7.173e-04    1.191e-04   -1.556e-03  
 -5.8000e-02   -4.175e-05    7.174e-04    1.175e-04   -1.627e-03  
 -5.7000e-02   -4.104e-05    7.175e-04    1.159e-04   -1.570e-03  
 -5.6000e-02   -4.032e-05    7.177e-04    1.143e-04   -1.613e-03  
 -5.5000e-02   -3.960e-05    7.178e-04    1.127e-04   -1.556e-03  
 -5.4000e-02   -3.888e-05    7.179e-04    1.111e-04   -1.663e-03  
 -5.3000e-02   -3.816e-05    7.180e-04    1.095e-04   -1.585e-03  
 -5.2000e-02   -3.745e-05    7.181e-04    1.078e-04   -1.577e-03  
 -5.1000e-02   -3.673e-05    7.182e-04    1.062e-04   -1.698e-03  
 -5.0000e-02   -3.601e-05    7.183e-04    1.046e-04   -1.570e-03  
 -4.9000e-02   -3.529e-05    7.184e-04    1.029e-04   -1.620e-03  
 -4.8000e-02   -3.457e-05    7.185e-04    1.013e-04   -1.663e-03  
 -4.7000e-02   -3.385e-05    7.186e-04    9.967e-05   -1.641e-03  
 -4.6000e-02   -3.314e-05    7.187e-04    9.798e-05   -1.627e-03  
 -4.5000e-02   -3.242e-05    7.188e-04    9.636e-05   -1.691e-03  
 -4.4000e-02   -3.170e-05    7.189e-04    9.464e-05   -1.620e-03  
 -4.3000e-02   -3.098e-05    7.190e-04    9.302e-05   -1.720e-03  
 -4.2000e-02   -3.026e-05    7.191e-04    9.130e-05   -1.627e-03  
 -4.1000e-02   -2.954e-05    7.192e-04    8.959e-05   -1.720e-03  
 -4.0000e-02   -2.882e-05    7.192e-04    8.792e-05   -1.712e-03  
 -3.9000e-02   -2.810e-05    7.193e-04    8.617e-05   -1.670e-03  
 -3.8000e-02   -2.738e-05    7.194e-04    8.443e-05   -1.748e-03  
 -3.7000e-02   -2.666e-05    7.195e-04    8.273e-05   -1.734e-03  
 -3.6000e-02   -2.594e-05    7.196e-04    8.097e-05   -1.705e-03  
 -3.5000e-02   -2.522e-05    7.196e-04    7.920e-05   -1.762e-03  
 -3.4000e-02   -2.450e-05    7.197e-04    7.740e-05   -1.769e-03  
 -3.3000e-02   -2.378e-05    7.198e-04    7.565e-05   -1.798e-03  
 -3.2000e-02   -2.306e-05    7.199e-04    7.381e-05   -1.748e-03  
 -3.1000e-02   -2.234e-05    7.199e-04    7.201e-05   -1.840e-03  
 -3.0000e-02   -2.162e-05    7.200e-04    7.019e-05   -1.805e-03  
 -2.9000e-02   -2.090e-05    7.201e-04    6.833e-05   -1.815e-03  
 -2.8000e-02   -2.018e-05    7.201e-04    6.646e-05   -1.865e-03  
 -2.7000e-02   -1.946e-05    7.202e-04    6.458e-05   -1.865e-03  
 -2.6000e-02   -1.874e-05    7.203e-04    6.268e-05   -1.879e-03  
 -2.5000e-02   -1.802e-05    7.203e-04    6.078e-05   -1.897e-03  
 -2.4000e-02   -1.730e-05    7.204e-04    5.884e-05   -1.904e-03  
 -2.3000e-02   -1.658e-05    7.204e-04    5.688e-05   -1.943e-03  
 -2.2000e-02   -1.586e-05    7.205e-04    5.493e-05   -1.958e-03  
 -2.1000e-02   -1.514e-05    7.205e-04    5.292e-05   -1.947e-03  
 -2.0000e-02   -1.442e-05    7.206e-04    5.092e-05   -2.014e-03  
 -1.9000e-02   -1.370e-05    7.206e-04    4.890e-05   -1.993e-03  
 -1.8000e-02   -1.298e-05    7.207e-04    4.685e-05   -2.029e-03  
 -1.7000e-02   -1.226e-05    7.207e-04    4.477e-05   -2.050e-03  
 -1.6000e-02   -1.154e-05    7.208e-04    4.270e-05   -2.071e-03  
 -1.5000e-02   -1.082e-05    7.208e-04    4.058e-05   -2.078e-03  
 -1.4000e-02   -1.009e-05    7.208e-04    3.847e-05   -2.114e-03  
 -1.3000e-02   -9.374e-06    7.209e-04    3.631e-05   -2.117e-03  
 -1.2000e-02   -8.653e-06    7.209e-04    3.415e-05   -2.151e-03  
 -1.1000e-02   -7.932e-06    7.209e-04    3.197e-05   -2.164e-03  
 -1.0000e-02   -7.211e-06    7.210e-04    2.978e-05   -2.180e-03  
 -9.0000e-03   -6.490e-06    7.210e-04    2.755e-05   -2.196e-03  
 -8.0000e-03   -5.769e-06    7.210e-04    2.532e-05   -2.229e-03  
 -7.0000e-03   -5.048e-06    7.210e-04    2.307e-05   -2.224e-03  
 -6.0000e-03   -4.327e-06    7.210e-04    2.081e-05   -2.252e-03  
 -5.0000e-03   -3.605e-06    7.211e-04    1.853e-05   -2.257e-03  
 -4.0000e-03   -2.884e-06    7.211e-04    1.624e-05   -2.286e-03  
 -3.0000e-03   -2.163e-06    7.211e-04    1.394e-05   -2.284e-03  
 -2.0000e-03   -1.442e-06    7.211e-04    1.164e-05   -2.302e-03  
 -1.0000e-03   -7.211e-07    7.211e-04    9.316e-06   -2.304e-03  
    0.          1.901e-20    7.211e-04    6.993e-06   -2.320e-03  
  1.0000e-03    7.211e-07    7.211e-04    4.665e-06   -2.323e-03  
  2.0000e-03    1.442e-06    7.211e-04    2.333e-06   -2.328e-03  
  3.0000e-03    2.163e-06    7.211e-04   -3.816e-14   -2.331e-03  
  4.0000e-03    2.884e-06    7.211e-04   -2.333e-06   -2.333e-03  
  5.0000e-03    3.605e-06    7.211e-04   -4.664e-06   -2.333e-03  
  6.0000e-03    4.327e-06    7.211e-04   -6.993e-06   -2.331e-03  
  7.0000e-03    5.048e-06    7.211e-04   -9.317e-06   -2.329e-03  
  8.0000e-03    5.769e-06    7.211e-04   -1.163e-05   -2.324e-03  
  9.0000e-03    6.490e-06    7.210e-04   -1.394e-05   -2.316e-03  
  1.0000e-02    7.211e-06    7.210e-04   -1.624e-05   -2.307e-03  
  1.1000e-02    7.932e-06    7.210e-04   -1.853e-05   -2.303e-03  
  1.2000e-02    8.653e-06    7.210e-04   -2.081e-05   -2.290e-03  
  1.3000e-02    9.374e-06    7.210e-04   -2.307e-05   -2.273e-03  
  1.4000e-02    1.009e-05    7.209e-04   -2.532e-05   -2.266e-03  
  1.5000e-02    1.082e-05    7.209e-04   -2.755e-05   -2.249e-03  
  1.6000e-02    1.154e-05    7.209e-04   -2.977e-05   -2.233e-03  
  1.7000e-02    1.226e-05    7.208e-04   -3.197e-05   -2.215e-03  
  1.8000e-02    1.298e-05    7.208e-04   -3.415e-05   -2.206e-03  
  1.9000e-02    1.370e-05    7.208e-04   -3.632e-05   -2.174e-03  
  2.0000e-02    1.442e-05    7.207e-04   -3.847e-05   -2.169e-03  
  2.1000e-02    1.514e-05    7.207e-04   -4.058e-05   -2.148e-03  
  2.2000e-02    1.586e-05    7.206e-04   -4.270e-05   -2.114e-03  
  2.3000e-02    1.658e-05    7.206e-04   -4.478e-05   -2.117e-03  
  2.4000e-02    1.730e-05    7.205e-04   -4.684e-05   -2.082e-03  
  2.5000e-02    1.802e-05    7.205e-04   -4.890e-05   -2.064e-03  
  2.6000e-02    1.874e-05    7.204e-04   -5.092e-05   -2.061e-03  
  2.7000e-02    1.946e-05    7.204e-04   -5.293e-05   -2.014e-03  
  2.8000e-02    2.018e-05    7.203e-04   -5.491e-05   -2.014e-03  
  2.9000e-02    2.090e-05    7.203e-04   -5.688e-05   -1.979e-03  
  3.0000e-02    2.162e-05    7.202e-04   -5.885e-05   -1.972e-03  
  3.1000e-02    2.234e-05    7.201e-04   -6.077e-05   -1.965e-03  
  3.2000e-02    2.306e-05    7.201e-04   -6.269e-05   -1.926e-03  
  3.3000e-02    2.378e-05    7.200e-04   -6.458e-05   -1.918e-03  
  3.4000e-02    2.450e-05    7.199e-04   -6.646e-05   -1.886e-03  
  3.5000e-02    2.522e-05    7.199e-04   -6.834e-05   -1.879e-03  
  3.6000e-02    2.594e-05    7.198e-04   -7.017e-05   -1.883e-03  
  3.7000e-02    2.666e-05    7.197e-04   -7.201e-05   -1.833e-03  
  3.8000e-02    2.738e-05    7.196e-04   -7.383e-05   -1.833e-03  
  3.9000e-02    2.810e-05    7.196e-04   -7.564e-05   -1.819e-03  
  4.0000e-02    2.882e-05    7.195e-04   -7.742e-05   -1.812e-03  
  4.1000e-02    2.954e-05    7.194e-04   -7.918e-05   -1.783e-03  
  4.2000e-02    3.026e-05    7.193e-04   -8.098e-05   -1.755e-03  
  4.3000e-02    3.098e-05    7.192e-04   -8.270e-05   -1.805e-03  
  4.4000e-02    3.170e-05    7.192e-04   -8.445e-05   -1.720e-03  
  4.5000e-02    3.242e-05    7.191e-04   -8.619e-05   -1.748e-03  
  4.6000e-02    3.314e-05    7.190e-04   -8.788e-05   -1.741e-03  
  4.7000e-02    3.385e-05    7.189e-04   -8.963e-05   -1.691e-03  
  4.8000e-02    3.457e-05    7.188e-04   -9.128e-05   -1.748e-03  
  4.9000e-02    3.529e-05    7.187e-04   -9.300e-05   -1.656e-03  
  5.0000e-02    3.601e-05    7.186e-04   -9.466e-05   -1.712e-03  
  5.1000e-02    3.673e-05    7.185e-04   -9.636e-05   -1.663e-03  
  5.2000e-02    3.745e-05    7.184e-04   -9.798e-05   -1.705e-03  
  5.3000e-02    3.816e-05    7.183e-04   -9.967e-05   -1.620e-03  
  5.4000e-02    3.888e-05    7.182e-04   -1.013e-04   -1.691e-03  
  5.5000e-02    3.960e-05    7.181e-04   -1.030e-04   -1.627e-03  
  5.6000e-02    4.032e-05    7.180e-04   -1.046e-04   -1.663e-03  
  5.7000e-02    4.104e-05    7.179e-04   -1.062e-04   -1.592e-03  
  5.8000e-02    4.175e-05    7.178e-04   -1.078e-04   -1.684e-03  
  5.9000e-02    4.247e-05    7.177e-04   -1.094e-04   -1.606e-03  
  6.0000e-02    4.319e-05    7.175e-04   -1.111e-04   -1.585e-03  
  6.1000e-02    4.391e-05    7.174e-04   -1.127e-04   -1.677e-03  
  6.2000e-02    4.462e-05    7.173e-04   -1.143e-04   -1.549e-03  
  6.3000e-02    4.534e-05    7.172e-04   -1.159e-04   -1.648e-03  
  6.4000e-02    4.606e-05    7.171e-04   -1.175e-04   -1.563e-03  
  6.5000e-02    4.677e-05    7.170e-04   -1.191e-04   -1.634e-03  
  6.6000e-02    4.749e-05    7.168e-04   -1.206e-04   -1.570e-03  
  6.7000e-02    4.821e-05    7.167e-04   -1.223e-04   -1.570e-03  
  6.8000e-02    4.892e-05    7.166e-04   -1.238e-04   -1.641e-03  
  6.9000e-02    4.964e-05    7.165e-04   -1.254e-04   -1.542e-03  
  7.0000e-02    5.036e-05    7.163e-04   -1.270e-04   -1.585e-03  
  7.1000e-02    5.107e-05    7.162e-04   -1.286e-04   -1.563e-03  
  7.2000e-02    5.179e-05    7.161e-04   -1.301e-04   -1.620e-03  
  7.3000e-02    5.250e-05    7.159e-04   -1.317e-04   -1.535e-03  
  7.4000e-02    5.322e-05    7.158e-04   -1.333e-04   -1.606e-03  
  7.5000e-02    5.394e-05    7.157e-04   -1.349e-04   -1.535e-03  
  7.6000e-02    5.465e-05    7.155e-04   -1.364e-04   -1.592e-03  
  7.7000e-02    5.537e-05    7.154e-04   -1.380e-04   -1.549e-03  
  7.8000e-02    5.608e-05    7.152e-04   -1.396e-04   -1.563e-03  
  7.9000e-02    5.680e-05    7.151e-04   -1.411e-04   -1.577e-03  
  8.0000e-02    5.751e-05    7.150e-04   -1.426e-04   -1.592e-03  
  8.1000e-02    5.823e-05    7.148e-04   -1.443e-04   -1.492e-03  
  8.2000e-02    5.894e-05    7.147e-04   -1.458e-04   -1.634e-03  
  8.3000e-02    5.965e-05    7.145e-04   -1.474e-04   -1.492e-03  
  8.4000e-02    6.037e-05    7.144e-04   -1.489e-04   -1.634e-03  
  8.5000e-02    6.108e-05    7.142e-04   -1.505e-04   -1.521e-03  
  8.6000e-02    6.180e-05    7.141e-04   -1.520e-04   -1.549e-03  
  8.7000e-02    6.251e-05    7.139e-04   -1.536e-04   -1.577e-03  
  8.8000e-02    6.322e-05    7.137e-04   -1.552e-04   -1.577e-03  
  8.9000e-02    6.394e-05    7.136e-04   -1.567e-04   -1.535e-03  
  9.0000e-02    6.465e-05    7.134e-04   -1.583e-04   -1.535e-03  
  9.1000e-02    6.536e-05    7.133e-04   -1.598e-04   -1.634e-03  
  9.2000e-02    6.608e-05    7.131e-04   -1.614e-04   -1.521e-03  
  9.3000e-02    6.679e-05    7.129e-04   -1.630e-04   -1.563e-03  
  9.4000e-02    6.750e-05    7.128e-04   -1.645e-04   -1.563e-03  
  9.5000e-02    6.821e-05    7.126e-04   -1.661e-04   -1.549e-03  
  9.6000e-02    6.893e-05    7.124e-04   -1.677e-04   -1.606e-03  
  9.7000e-02    6.964e-05    7.123e-04   -1.692e-04   -1.535e-03  
  9.8000e-02    7.035e-05    7.121e-04   -1.708e-04   -1.563e-03  
  9.9000e-02    7.106e-05    7.119e-04   -1.724e-04   -1.577e-03  
    0.10000     7.177e-05    7.117e-04   -1.739e-04   -1.592e-03  
y
x

        volt    param      
                    gx4    
   -0.10000     1.748e-02  
 -9.9000e-02      3.6955   
 -9.8000e-02   -5.919e+03  
 -9.7000e-02   -1.217e+06  
 -9.6000e-02   -1.305e+08  
 -9.5000e-02    3.989e+08  
 -9.4000e-02   -4.015e+08  
 -9.3000e-02    1.342e+08  
 -9.2000e-02    7.105e-02  
 -9.1000e-02   -4.263e-02  
 -9.0000e-02   -1.421e-02  
 -8.9000e-02    4.263e-02  
 -8.8000e-02   -4.263e-02  
 -8.7000e-02    8.527e-02  
 -8.6000e-02     -0.1137   
 -8.5000e-02    8.527e-02  
 -8.4000e-02   -4.263e-02  
 -8.3000e-02      0.       
 -8.2000e-02    4.263e-02  
 -8.1000e-02   -4.263e-02  
 -8.0000e-02    4.263e-02  
 -7.9000e-02   -8.527e-02  
 -7.8000e-02      0.1137   
 -7.7000e-02   -4.263e-02  
 -7.6000e-02   -7.105e-02  
 -7.5000e-02      0.1137   
 -7.4000e-02   -9.948e-02  
 -7.3000e-02    8.527e-02  
 -7.2000e-02   -5.684e-02  
 -7.1000e-02   -2.842e-02  
 -7.0000e-02      0.1421   
 -6.9000e-02     -0.1847   
 -6.8000e-02    9.948e-02  
 -6.7000e-02   -2.711e-14  
 -6.6000e-02   -2.842e-02  
 -6.5000e-02    1.421e-02  
 -6.4000e-02   -2.842e-02  
 -6.3000e-02    5.684e-02  
 -6.2000e-02   -8.527e-02  
 -6.1000e-02    5.684e-02  
 -6.0000e-02   -7.105e-03  
 -5.9000e-02   -2.842e-02  
 -5.8000e-02    4.263e-02  
 -5.7000e-02   -7.105e-02  
 -5.6000e-02    5.684e-02  
 -5.5000e-02   -4.263e-02  
 -5.4000e-02    5.684e-02  
 -5.3000e-02     -0.1066   
 -5.2000e-02    7.816e-02  
 -5.1000e-02    7.105e-03  
 -5.0000e-02     -0.1208   
 -4.9000e-02      0.1279   
 -4.8000e-02   -4.974e-02  
 -4.7000e-02   -4.263e-02  
 -4.6000e-02    2.132e-02  
 -4.5000e-02    1.421e-02  
 -4.4000e-02   -6.395e-02  
 -4.3000e-02    7.105e-02  
 -4.2000e-02   -9.948e-02  
 -4.1000e-02    9.237e-02  
 -4.0000e-02   -9.237e-02  
 -3.9000e-02    7.105e-03  
 -3.8000e-02    4.263e-02  
 -3.7000e-02   -7.816e-02  
 -3.6000e-02    1.421e-02  
 -3.5000e-02    2.842e-02  
 -3.4000e-02   -5.684e-02  
 -3.3000e-02   -7.105e-03  
 -3.2000e-02   -2.842e-02  
 -3.1000e-02    4.974e-02  
 -3.0000e-02   -9.237e-02  
 -2.9000e-02    3.553e-02  
 -2.8000e-02   -1.066e-02  
 -2.7000e-02   -4.974e-02  
 -2.6000e-02   -3.946e-14  
 -2.5000e-02   -1.421e-02  
 -2.4000e-02   -1.776e-02  
 -2.3000e-02   -7.105e-03  
 -2.2000e-02   -3.908e-02  
 -2.1000e-02   -1.421e-02  
 -2.0000e-02    1.066e-02  
 -1.9000e-02   -6.750e-02  
 -1.8000e-02    2.132e-02  
 -1.7000e-02   -3.553e-02  
 -1.6000e-02   -2.132e-02  
 -1.5000e-02   -2.132e-02  
 -1.4000e-02   -7.105e-03  
 -1.3000e-02   -3.553e-02  
 -1.2000e-02   -3.553e-03  
 -1.1000e-02   -3.375e-02  
 -1.0000e-02   -1.243e-02  
 -9.0000e-03   -1.599e-02  
 -8.0000e-03   -1.599e-02  
 -7.0000e-03   -3.375e-02  
 -6.0000e-03    5.329e-03  
 -5.0000e-03   -2.842e-02  
 -4.0000e-03   -4.441e-03  
 -3.0000e-03   -2.931e-02  
 -2.0000e-03    2.665e-03  
 -1.0000e-03   -1.865e-02  
    0.         -2.220e-03  
  1.0000e-03   -1.599e-02  
  2.0000e-03   -2.887e-03  
  3.0000e-03   -4.663e-03  
  4.0000e-03   -3.553e-03  
  5.0000e-03   -1.998e-03  
  6.0000e-03    1.145e-07  
  7.0000e-03    2.887e-03  
  8.0000e-03    1.776e-03  
  9.0000e-03    4.663e-03  
  1.0000e-02    8.216e-03  
  1.1000e-02    8.882e-03  
  1.2000e-02    3.997e-03  
  1.3000e-02    1.332e-02  
  1.4000e-02    1.688e-02  
  1.5000e-02    7.105e-03  
  1.6000e-02    1.688e-02  
  1.7000e-02    1.599e-02  
  1.8000e-02    1.776e-02  
  1.9000e-02    8.882e-03  
  2.0000e-02    3.197e-02  
  2.1000e-02    5.329e-03  
  2.2000e-02    2.132e-02  
  2.3000e-02    3.375e-02  
  2.4000e-02   -3.553e-03  
  2.5000e-02    3.553e-02  
  2.6000e-02    1.776e-02  
  2.7000e-02    3.553e-03  
  2.8000e-02    4.619e-02  
  2.9000e-02   -6.939e-15  
  3.0000e-02    3.553e-02  
  3.1000e-02    7.105e-03  
  3.2000e-02    7.105e-03  
  3.3000e-02    3.908e-02  
  3.4000e-02    7.105e-03  
  3.5000e-02    3.197e-02  
  3.6000e-02    7.105e-03  
  3.7000e-02   -3.553e-03  
  3.8000e-02    4.974e-02  
  3.9000e-02   -1.344e-14  
  4.0000e-02    1.421e-02  
  4.1000e-02    7.105e-03  
  4.2000e-02    2.842e-02  
  4.3000e-02    2.842e-02  
  4.4000e-02   -4.974e-02  
  4.5000e-02    8.527e-02  
  4.6000e-02   -2.842e-02  
  4.7000e-02    7.105e-03  
  4.8000e-02    4.974e-02  
  4.9000e-02   -5.684e-02  
  5.0000e-02    9.237e-02  
  5.1000e-02   -5.684e-02  
  5.2000e-02    4.974e-02  
  5.3000e-02   -4.263e-02  
  5.4000e-02    8.527e-02  
  5.5000e-02   -7.105e-02  
  5.6000e-02    6.395e-02  
  5.7000e-02   -3.553e-02  
  5.8000e-02    7.105e-02  
  5.9000e-02   -9.237e-02  
  6.0000e-02    7.816e-02  
  6.1000e-02    2.132e-02  
  6.2000e-02   -9.237e-02  
  6.3000e-02      0.1279   
  6.4000e-02   -9.948e-02  
  6.5000e-02    8.527e-02  
  6.6000e-02   -7.105e-02  
  6.7000e-02    6.395e-02  
  6.8000e-02      0.       
  6.9000e-02   -7.105e-02  
  7.0000e-02    9.948e-02  
  7.1000e-02   -4.263e-02  
  7.2000e-02    2.132e-02  
  7.3000e-02   -5.684e-02  
  7.4000e-02    8.527e-02  
  7.5000e-02   -7.105e-02  
  7.6000e-02    7.105e-02  
  7.7000e-02   -5.684e-02  
  7.8000e-02    4.263e-02  
  7.9000e-02   -1.421e-02  
  8.0000e-02   -1.421e-02  
  8.1000e-02   -1.421e-02  
  8.2000e-02    9.948e-02  
  8.3000e-02     -0.1421   
  8.4000e-02      0.1421   
  8.5000e-02     -0.1421   
  8.6000e-02      0.1137   
  8.7000e-02   -2.842e-02  
  8.8000e-02   -2.842e-02  
  8.9000e-02      0.       
  9.0000e-02    4.263e-02  
  9.1000e-02      0.       
  9.2000e-02   -9.948e-02  
  9.3000e-02      0.1137   
  9.4000e-02   -4.263e-02  
  9.5000e-02      0.       
  9.6000e-02    1.421e-02  
  9.7000e-02   -5.684e-02  
  9.8000e-02    7.105e-02  
  9.9000e-02   -2.842e-02  
    0.10000    -1.421e-02  
y
-----------------------------------------------

          ***** job concluded
1****** HSPICE -- G-2012.06 32-BIT (May 27 2012) RHEL32 ******                  
 ******  
 *sample netlist for bsim6

  ******  job statistics summary tnom=  25.000 temp=  25.000 *****
  
  
 ******  Machine Information  ******
 CPU:
 model name	: AMD Opteron(tm) Processor 248
 cpu MHz	: 2200.048
  
 OS:
 Linux version 2.6.9-22.EL (bhcompile@crowe.devel.redhat.com) (gcc version 3.4.4 20050721 (Red Hat 3.4.4-2)) #1 Mon Sep 19 17:49:49 EDT 2005


  ******  HSPICE Threads Information  ******

  Command Line Threads Count :     1
  Available CPU Count        :     1
  Actual Threads Count       :     1


  ******  Circuit Statistics  ******
  # nodes       =      15 # elements   =       5
  # resistors   =       0 # capacitors =       0 # inductors   =       0
  # mutual_inds =       0 # vccs       =       0 # vcvs        =       1
  # cccs        =       0 # ccvs       =       0 # volt_srcs   =       3
  # curr_srcs   =       0 # diodes     =       0 # bjts        =       0
  # jfets       =       0 # mosfets    =       0 # U elements  =       0
  # T elements  =       0 # W elements =       0 # B elements  =       0
  # S elements  =       0 # P elements =       0 # va device   =       1
  # vector_srcs =       0 # N elements =       0


  ******  Runtime Statistics (seconds)  ******

  analysis           time    # points   tot. iter  conv.iter
  op point           0.00           1           0
  dc sweep           0.25        1206        2424
  readin             3.38
  errchk             0.04
  setup              0.00
  output             0.02


           peak memory used        114.34 megabytes
           total cpu time            3.69 seconds
           total elapsed time       14.50 seconds
           job started at     15:38:19 03/19/2014
           job ended   at     15:38:34 03/19/2014


 lic: Release hspice token(s) 
 lic: total license checkout elapse time:        0.20(s)


pVA concluded on Wed Mar 19 15:38:34 2014

