Using: /cad/synopsys/Hspice/G-2012.06/hspice/linux/hspice idvg_pmos.sp
 ****** HSPICE -- G-2012.06 32-BIT (May 27 2012) RHEL32 ******                  
  Copyright (C) 2012 Synopsys, Inc. All Rights Reserved.                        
  Unpublished-rights reserved under US copyright laws.
  This program is protected by law and is subject to the
  terms and conditions of the license agreement from Synopsys.
  Use of this program is your acceptance to be bound by the
  license agreement. HSPICE is the trademark of Synopsys, Inc.
  Input File: idvg_pmos.sp                                                      
  Command line options: idvg_pmos.sp
 lic:  
 lic: FLEXlm: v10.8 
 lic: USER:   agarwalh             HOSTNAME: xcel1.vlsi.iitk.ac.in 
 lic: HOSTID: 0008a1953eea         PID:      17759 
 lic: Using FLEXlm license file: 
 lic: 27000@xcel0 
 lic: Checkout 1 hspice 
 lic: License/Maintenance for hspice will expire on 15-jun-2014/2013.03 
 lic: 1(in_use)/5(total) FLOATING license(s) on SERVER xcel0 
 lic:   
 Init: read install configuration file: /cad/synopsys/Hspice/G-2012.06/hspice/meta.cfg


 --------------------------------------------------------
|                                                        |
|          Synopsys Unified Verilog-A (pVA v2.0)         |
|                                                        |
|           Machine Name: xcel1.vlsi.iitk.ac.in          |
| Copyright (c) 2011 Synopsys Inc., All Rights Reserved. |
|                                                        |
 --------------------------------------------------------

libepva built by pvamgr synmake_pva_build  on Tue May  1 20:03:16 PDT 2012
HSP_HOME:   /cad/synopsys/Hspice/G-2012.06/hspice
HSP_ARCH:   linux
HSP_GCC :   /cad/synopsys/Hspice/G-2012.06/hspice/GNU/amd64/gcc-4.5.2-static/bin/gcc -m32 
HSP_GCC_VER:   4.5.2
Working-Dir: /users/phd/agarwalh/synopsys_designs/BSIM6/Release_test/bsim6.1.1/bsim6.1.1
Args:        -p hsp -t spi -f idvg_pmos.pvadir/pvaHDL.lis -o idvg_pmos.pvadir 


Begin of pVA compiling on Wed Mar 19 15:35:41 2014

Parsing './bsim6.va'
Parsing include file '/cad/synopsys/Hspice/G-2012.06/hspice/include/constants.vams'
Parsing include file '/cad/synopsys/Hspice/G-2012.06/hspice/include/disciplines.vams'

End of pVA compiling on Wed Mar 19 15:35:41 2014


End of build pVA DB on Wed Mar 19 15:35:41 2014

*pvaI* Module (bsim6): 4 unexpanded port, 0 init, 2370 behav, 64 contrib, 43/2409 expr(s)
*pvaI* Resizing DB size for v count = 1
*pvaI*        Has DIS (ST SB), 3 afCount
*pvaI*        0 const-G and 0 const-C, Has switch branch.
*pvaI* Module (bsim6): generated 7 flow node(s) during compilation.

End of pVA genC on Wed Mar 19 15:35:44 2014

*pvaI* #### Total 316 line-size(s), 43 expr(s), 64 contr(s), 0 init(s), 2370 behav(s), 4 port(s)

Generating idvg_pmos.pvadir/pvaRTL_linux.so


End of submitting pVA idvg_pmos.pvadir/pvaRTL.mak on Wed Mar 19 15:35:55 2014


End of pVA elaboration on Wed Mar 19 15:35:55 2014

 Loading pVA library idvg_pmos.pvadir/pvaRTL_linux.so...
1****** HSPICE -- G-2012.06 32-BIT (May 27 2012) RHEL32 ******                  
 ******  
 *sample netlist for bsim6

  ******  circuit name directory
 circuit number to circuit name directory
   number circuitname                     definition         multiplier
        0 main circuit
        1 x1.                             bsim6(va)          1.00 
*pvaI* Creating Verilog-A module 'bsim6' for X1
  
      
 *****************************************************************
 ******  option summary
 ******
 runlvl  = 3         bypass  = 2         
  Opening plot unit= 15
 file=idvg_pmos.pa0                                                            

 ******  
 *sample netlist for bsim6

  ******  dc transfer curves tnom=  25.000 temp=  25.000 *****

   *** source        0:vb =    0.            ***

x

        volt    param        param        param      
                    ids          gm           gm2    
   -1.30000     6.734e-06      0.           0.       
   -1.29000     6.709e-06    6.734e-04      0.       
   -1.28000     6.684e-06   -2.472e-06    6.734e-02  
   -1.27000     6.658e-06   -2.511e-06   -6.758e-02  
   -1.26000     6.632e-06   -2.549e-06   -3.829e-06  
   -1.25000     6.606e-06   -2.589e-06   -3.887e-06  
   -1.24000     6.579e-06   -2.629e-06   -3.945e-06  
   -1.23000     6.552e-06   -2.670e-06   -4.004e-06  
   -1.22000     6.525e-06   -2.711e-06   -4.063e-06  
   -1.21000     6.497e-06   -2.753e-06   -4.124e-06  
   -1.20000     6.468e-06   -2.795e-06   -4.185e-06  
   -1.19000     6.440e-06   -2.838e-06   -4.247e-06  
   -1.18000     6.410e-06   -2.882e-06   -4.311e-06  
   -1.17000     6.381e-06   -2.926e-06   -4.374e-06  
   -1.16000     6.350e-06   -2.971e-06   -4.439e-06  
   -1.15000     6.320e-06   -3.017e-06   -4.505e-06  
   -1.14000     6.289e-06   -3.064e-06   -4.571e-06  
   -1.13000     6.257e-06   -3.111e-06   -4.639e-06  
   -1.12000     6.225e-06   -3.158e-06   -4.707e-06  
   -1.11000     6.193e-06   -3.207e-06   -4.777e-06  
   -1.10000     6.159e-06   -3.256e-06   -4.847e-06  
   -1.09000     6.126e-06   -3.306e-06   -4.918e-06  
   -1.08000     6.092e-06   -3.357e-06   -4.989e-06  
   -1.07000     6.057e-06   -3.408e-06   -5.062e-06  
   -1.06000     6.022e-06   -3.460e-06   -5.136e-06  
   -1.05000     5.986e-06   -3.513e-06   -5.210e-06  
   -1.04000     5.950e-06   -3.566e-06   -5.285e-06  
   -1.03000     5.913e-06   -3.621e-06   -5.361e-06  
   -1.02000     5.876e-06   -3.676e-06   -5.438e-06  
   -1.01000     5.838e-06   -3.732e-06   -5.516e-06  
   -1.00000     5.800e-06   -3.789e-06   -5.594e-06  
   -0.99000     5.761e-06   -3.846e-06   -5.673e-06  
   -0.98000     5.721e-06   -3.905e-06   -5.753e-06  
   -0.97000     5.681e-06   -3.964e-06   -5.834e-06  
   -0.96000     5.640e-06   -4.024e-06   -5.915e-06  
   -0.95000     5.599e-06   -4.084e-06   -5.997e-06  
   -0.94000     5.556e-06   -4.146e-06   -6.080e-06  
   -0.93000     5.514e-06   -4.209e-06   -6.163e-06  
   -0.92000     5.470e-06   -4.272e-06   -6.247e-06  
   -0.91000     5.426e-06   -4.336e-06   -6.330e-06  
   -0.90000     5.382e-06   -4.401e-06   -6.415e-06  
   -0.89000     5.336e-06   -4.467e-06   -6.500e-06  
   -0.88000     5.290e-06   -4.534e-06   -6.585e-06  
   -0.87000     5.244e-06   -4.601e-06   -6.671e-06  
   -0.86000     5.196e-06   -4.670e-06   -6.757e-06  
   -0.85000     5.148e-06   -4.739e-06   -6.843e-06  
   -0.84000     5.099e-06   -4.809e-06   -6.929e-06  
   -0.83000     5.050e-06   -4.880e-06   -7.015e-06  
   -0.82000     5.000e-06   -4.952e-06   -7.101e-06  
   -0.81000     4.949e-06   -5.025e-06   -7.186e-06  
   -0.80000     4.897e-06   -5.098e-06   -7.272e-06  
   -0.79000     4.844e-06   -5.173e-06   -7.356e-06  
   -0.78000     4.791e-06   -5.248e-06   -7.440e-06  
   -0.77000     4.737e-06   -5.324e-06   -7.524e-06  
   -0.76000     4.682e-06   -5.401e-06   -7.606e-06  
   -0.75000     4.627e-06   -5.478e-06   -7.687e-06  
   -0.74000     4.571e-06   -5.557e-06   -7.767e-06  
   -0.73000     4.513e-06   -5.636e-06   -7.846e-06  
   -0.72000     4.455e-06   -5.716e-06   -7.922e-06  
   -0.71000     4.397e-06   -5.797e-06   -7.997e-06  
   -0.70000     4.337e-06   -5.878e-06   -8.070e-06  
   -0.69000     4.277e-06   -5.960e-06   -8.139e-06  
   -0.68000     4.215e-06   -6.043e-06   -8.207e-06  
   -0.67000     4.153e-06   -6.126e-06   -8.271e-06  
   -0.66000     4.090e-06   -6.210e-06   -8.331e-06  
   -0.65000     4.026e-06   -6.295e-06   -8.388e-06  
   -0.64000     3.962e-06   -6.379e-06   -8.441e-06  
   -0.63000     3.896e-06   -6.465e-06   -8.489e-06  
   -0.62000     3.830e-06   -6.550e-06   -8.531e-06  
   -0.61000     3.763e-06   -6.636e-06   -8.568e-06  
   -0.60000     3.695e-06   -6.723e-06   -8.598e-06  
   -0.59000     3.626e-06   -6.809e-06   -8.621e-06  
   -0.58000     3.556e-06   -6.895e-06   -8.638e-06  
   -0.57000     3.485e-06   -6.982e-06   -8.645e-06  
   -0.56000     3.414e-06   -7.068e-06   -8.642e-06  
   -0.55000     3.341e-06   -7.154e-06   -8.631e-06  
   -0.54000     3.268e-06   -7.240e-06   -8.607e-06  
   -0.53000     3.194e-06   -7.325e-06   -8.571e-06  
   -0.52000     3.119e-06   -7.410e-06   -8.522e-06  
   -0.51000     3.043e-06   -7.494e-06   -8.458e-06  
   -0.50000     2.967e-06   -7.576e-06   -8.378e-06  
   -0.49000     2.889e-06   -7.658e-06   -8.280e-06  
   -0.48000     2.811e-06   -7.738e-06   -8.163e-06  
   -0.47000     2.732e-06   -7.817e-06   -8.023e-06  
   -0.46000     2.652e-06   -7.894e-06   -7.861e-06  
   -0.45000     2.572e-06   -7.968e-06   -7.672e-06  
   -0.44000     2.491e-06   -8.040e-06   -7.454e-06  
   -0.43000     2.409e-06   -8.109e-06   -7.205e-06  
   -0.42000     2.327e-06   -8.175e-06   -6.920e-06  
   -0.41000     2.244e-06   -8.238e-06   -6.597e-06  
   -0.40000     2.160e-06   -8.296e-06   -6.232e-06  
   -0.39000     2.076e-06   -8.349e-06   -5.818e-06  
   -0.38000     1.992e-06   -8.398e-06   -5.352e-06  
   -0.37000     1.907e-06   -8.440e-06   -4.828e-06  
   -0.36000     1.822e-06   -8.476e-06   -4.238e-06  
   -0.35000     1.737e-06   -8.504e-06   -3.576e-06  
   -0.34000     1.652e-06   -8.524e-06   -2.834e-06  
   -0.33000     1.566e-06   -8.535e-06   -2.001e-06  
   -0.32000     1.481e-06   -8.535e-06   -1.068e-06  
   -0.31000     1.396e-06   -8.524e-06   -2.302e-08  
   -0.30000     1.311e-06   -8.499e-06    1.147e-06  
   -0.29000     1.227e-06   -8.460e-06    2.459e-06  
   -0.28000     1.144e-06   -8.404e-06    3.926e-06  
   -0.27000     1.062e-06   -8.330e-06    5.568e-06  
   -0.26000     9.806e-07   -8.235e-06    7.403e-06  
   -0.25000     9.008e-07   -8.118e-06    9.453e-06  
   -0.24000     8.228e-07   -7.975e-06    1.174e-05  
   -0.23000     7.467e-07   -7.805e-06    1.427e-05  
   -0.22000     6.731e-07   -7.603e-06    1.708e-05  
   -0.21000     6.021e-07   -7.368e-06    2.015e-05  
   -0.20000     5.342e-07   -7.097e-06    2.350e-05  
   -0.19000     4.698e-07   -6.789e-06    2.707e-05  
   -0.18000     4.092e-07   -6.443e-06    3.081e-05  
   -0.17000     3.528e-07   -6.059e-06    3.463e-05  
   -0.16000     3.009e-07   -5.639e-06    3.841e-05  
   -0.15000     2.538e-07   -5.188e-06    4.197e-05  
   -0.14000     2.116e-07   -4.712e-06    4.512e-05  
   -0.13000     1.744e-07   -4.220e-06    4.761e-05  
   -0.12000     1.420e-07   -3.723e-06    4.921e-05  
   -0.11000     1.144e-07   -3.232e-06    4.972e-05  
   -0.10000     9.119e-08   -2.762e-06    4.901e-05  
 -9.0000e-02    7.198e-08   -2.322e-06    4.707e-05  
 -8.0000e-02    5.632e-08   -1.921e-06    4.401e-05  
 -7.0000e-02    4.373e-08   -1.566e-06    4.005e-05  
 -6.0000e-02    3.373e-08   -1.259e-06    3.551e-05  
 -5.0000e-02    2.588e-08   -9.998e-07    3.070e-05  
 -4.0000e-02    1.977e-08   -7.854e-07    2.593e-05  
 -3.0000e-02    1.504e-08   -6.114e-07    2.144e-05  
 -2.0000e-02    1.142e-08   -4.723e-07    1.741e-05  
 -1.0000e-02    8.647e-09   -3.626e-07    1.391e-05  
    0.          6.539e-09   -2.770e-07    1.097e-05  
  1.0000e-02    4.939e-09   -2.108e-07    8.557e-06  
  2.0000e-02    3.727e-09   -1.600e-07    6.618e-06  
  3.0000e-02    2.811e-09   -1.211e-07    5.084e-06  
  4.0000e-02    2.120e-09   -9.158e-08    3.884e-06  
  5.0000e-02    1.598e-09   -6.915e-08    2.956e-06  
  6.0000e-02    1.205e-09   -5.217e-08    2.243e-06  
  7.0000e-02    9.083e-10   -3.934e-08    1.698e-06  
  8.0000e-02    6.848e-10   -2.965e-08    1.283e-06  
  9.0000e-02    5.164e-10   -2.235e-08    9.686e-07  
    0.10000     3.895e-10   -1.684e-08    7.306e-07  
    0.11000     2.938e-10   -1.269e-08    5.507e-07  
    0.12000     2.217e-10   -9.565e-09    4.150e-07  
    0.13000     1.674e-10   -7.209e-09    3.126e-07  
    0.14000     1.264e-10   -5.436e-09    2.356e-07  
    0.15000     9.544e-11   -4.099e-09    1.774e-07  
    0.16000     7.212e-11   -3.093e-09    1.337e-07  
    0.17000     5.451e-11   -2.332e-09    1.006e-07  
    0.18000     4.121e-11   -1.761e-09    7.610e-08  
    0.19000     3.119e-11   -1.330e-09    5.713e-08  
    0.20000     2.360e-11   -1.003e-09    4.306e-08  
    0.21000     1.786e-11   -7.581e-10    3.276e-08  
    0.22000     1.355e-11   -5.741e-10    2.444e-08  
    0.23000     1.027e-11   -4.313e-10    1.840e-08  
    0.24000     7.795e-12   -3.283e-10    1.428e-08  
    0.25000     5.926e-12   -2.473e-10    1.030e-08  
    0.26000     4.491e-12   -1.869e-10    8.100e-09  
    0.27000     3.425e-12   -1.435e-10    6.040e-09  
    0.28000     2.622e-12   -1.066e-10    4.334e-09  
    0.29000     2.004e-12   -8.029e-11    3.695e-09  
    0.30000     1.521e-12   -6.182e-11    2.629e-09  
    0.31000     1.172e-12   -4.832e-11    1.847e-09  
    0.32000     9.095e-13   -3.482e-11    1.350e-09  
    0.33000     6.963e-13   -2.629e-11    1.350e-09  
    0.34000     5.400e-13   -2.132e-11    8.527e-10  
    0.35000     4.192e-13   -1.563e-11    4.974e-10  
    0.36000     3.268e-13   -1.208e-11    5.684e-10  
    0.37000     2.700e-13   -9.237e-12    3.553e-10  
    0.38000     2.203e-13   -5.684e-12    2.842e-10  
    0.39000     1.776e-13   -4.974e-12    3.553e-10  
    0.40000     1.492e-13   -4.263e-12    7.105e-11  
    0.41000     1.208e-13   -2.842e-12    7.105e-11  
    0.42000     1.066e-13   -2.842e-12    1.421e-10  
    0.43000     9.237e-14   -1.421e-12      0.       
    0.44000     7.816e-14   -1.421e-12    1.421e-10  
    0.45000     7.105e-14   -1.421e-12      0.       
    0.46000     7.105e-14   -7.105e-13      0.       
    0.47000     6.395e-14      0.         7.105e-11  
    0.48000     6.395e-14   -7.105e-13    7.105e-11  
    0.49000     5.684e-14      0.        -7.105e-11  
    0.50000     5.684e-14   -7.105e-13    7.105e-11  
    0.51000     4.974e-14      0.        -7.105e-11  
    0.52000     4.974e-14   -7.105e-13    7.105e-11  
    0.53000     4.974e-14      0.        -7.105e-11  
    0.54000     4.974e-14      0.         7.105e-11  
    0.55000     4.974e-14      0.           0.       
    0.56000     4.974e-14      0.           0.       
    0.57000     4.974e-14      0.           0.       
    0.58000     4.974e-14      0.           0.       
    0.59000     5.684e-14      0.           0.       
    0.60000     4.974e-14    7.105e-13      0.       
    0.61000     4.974e-14   -7.105e-13    7.105e-11  
    0.62000     4.974e-14      0.        -1.421e-10  
    0.63000     4.974e-14      0.         7.105e-11  
    0.64000     5.684e-14      0.           0.       
    0.65000     5.684e-14    7.105e-13      0.       
    0.66000     4.974e-14      0.         7.105e-11  
    0.67000     4.974e-14   -7.105e-13   -7.105e-11  
    0.68000     4.974e-14      0.        -7.105e-11  
    0.69000     4.974e-14      0.         7.105e-11  
    0.70000     4.974e-14      0.           0.       
    0.71000     4.974e-14      0.           0.       
    0.72000     4.974e-14      0.           0.       
    0.73000     4.974e-14      0.           0.       
    0.74000     4.974e-14      0.           0.       
    0.75000     4.974e-14      0.           0.       
    0.76000     4.974e-14      0.           0.       
    0.77000     4.974e-14      0.           0.       
    0.78000     4.974e-14      0.           0.       
    0.79000     4.974e-14      0.           0.       
    0.80000     4.974e-14      0.           0.       
    0.81000     4.974e-14      0.           0.       
    0.82000     4.974e-14      0.           0.       
    0.83000     4.974e-14      0.           0.       
    0.84000     4.974e-14      0.           0.       
    0.85000     4.974e-14      0.           0.       
    0.86000     4.974e-14      0.           0.       
    0.87000     4.974e-14      0.           0.       
    0.88000     4.974e-14      0.           0.       
    0.89000     4.974e-14      0.           0.       
    0.90000     4.974e-14      0.           0.       
    0.91000     4.974e-14      0.           0.       
    0.92000     4.974e-14      0.           0.       
    0.93000     4.974e-14      0.           0.       
    0.94000     4.974e-14      0.           0.       
    0.95000     4.974e-14      0.           0.       
    0.96000     4.974e-14      0.           0.       
    0.97000     4.974e-14      0.           0.       
    0.98000     4.974e-14      0.           0.       
    0.99000     4.974e-14      0.           0.       
    1.00000     4.974e-14      0.           0.       
    1.01000     4.974e-14      0.           0.       
    1.02000     4.974e-14      0.           0.       
    1.03000     4.974e-14      0.           0.       
    1.04000     4.974e-14      0.           0.       
    1.05000     4.974e-14      0.           0.       
    1.06000     4.974e-14      0.           0.       
    1.07000     4.974e-14      0.           0.       
    1.08000     4.974e-14      0.           0.       
    1.09000     4.974e-14      0.           0.       
    1.10000     4.974e-14      0.           0.       
    1.11000     4.974e-14      0.           0.       
    1.12000     4.974e-14      0.           0.       
    1.13000     4.974e-14      0.           0.       
    1.14000     4.974e-14      0.           0.       
    1.15000     4.974e-14      0.           0.       
    1.16000     4.974e-14      0.           0.       
    1.17000     4.974e-14      0.           0.       
    1.18000     4.974e-14      0.           0.       
    1.19000     4.974e-14      0.           0.       
    1.20000     4.974e-14      0.           0.       
    1.21000     4.974e-14      0.           0.       
    1.22000     4.974e-14      0.           0.       
    1.23000     4.974e-14      0.           0.       
    1.24000     4.974e-14      0.           0.       
    1.25000     4.974e-14      0.           0.       
    1.26000     4.974e-14      0.           0.       
    1.27000     4.974e-14      0.           0.       
    1.28000     4.974e-14      0.           0.       
    1.29000     4.974e-14      0.           0.       
    1.30000     4.974e-14      0.           0.       
y
-----------------------------------------------
 ******  
 *sample netlist for bsim6

  ******  dc transfer curves tnom=  25.000 temp=  25.000 *****

   *** source        0:vb =   -0.1000        ***

x

        volt    param        param        param      
                    ids          gm           gm2    
   -1.30000     6.807e-06   -3.826e-14      0.       
   -1.29000     6.782e-06    6.807e-04   -3.826e-12  
   -1.28000     6.758e-06   -2.439e-06    6.807e-02  
   -1.27000     6.732e-06   -2.478e-06   -6.831e-02  
   -1.26000     6.707e-06   -2.516e-06   -3.812e-06  
   -1.25000     6.681e-06   -2.556e-06   -3.869e-06  
   -1.24000     6.655e-06   -2.595e-06   -3.928e-06  
   -1.23000     6.628e-06   -2.636e-06   -3.986e-06  
   -1.22000     6.601e-06   -2.677e-06   -4.046e-06  
   -1.21000     6.573e-06   -2.719e-06   -4.107e-06  
   -1.20000     6.545e-06   -2.761e-06   -4.168e-06  
   -1.19000     6.517e-06   -2.804e-06   -4.231e-06  
   -1.18000     6.488e-06   -2.847e-06   -4.293e-06  
   -1.17000     6.458e-06   -2.892e-06   -4.358e-06  
   -1.16000     6.428e-06   -2.937e-06   -4.423e-06  
   -1.15000     6.398e-06   -2.982e-06   -4.488e-06  
   -1.14000     6.367e-06   -3.028e-06   -4.555e-06  
   -1.13000     6.336e-06   -3.075e-06   -4.623e-06  
   -1.12000     6.304e-06   -3.123e-06   -4.691e-06  
   -1.11000     6.272e-06   -3.171e-06   -4.761e-06  
   -1.10000     6.240e-06   -3.220e-06   -4.831e-06  
   -1.09000     6.206e-06   -3.270e-06   -4.902e-06  
   -1.08000     6.173e-06   -3.320e-06   -4.974e-06  
   -1.07000     6.138e-06   -3.372e-06   -5.046e-06  
   -1.06000     6.104e-06   -3.424e-06   -5.120e-06  
   -1.05000     6.068e-06   -3.476e-06   -5.195e-06  
   -1.04000     6.032e-06   -3.530e-06   -5.271e-06  
   -1.03000     5.996e-06   -3.584e-06   -5.346e-06  
   -1.02000     5.959e-06   -3.639e-06   -5.424e-06  
   -1.01000     5.922e-06   -3.695e-06   -5.502e-06  
   -1.00000     5.884e-06   -3.751e-06   -5.580e-06  
   -0.99000     5.845e-06   -3.809e-06   -5.660e-06  
   -0.98000     5.806e-06   -3.867e-06   -5.740e-06  
   -0.97000     5.766e-06   -3.926e-06   -5.821e-06  
   -0.96000     5.725e-06   -3.986e-06   -5.903e-06  
   -0.95000     5.684e-06   -4.047e-06   -5.985e-06  
   -0.94000     5.643e-06   -4.108e-06   -6.068e-06  
   -0.93000     5.600e-06   -4.170e-06   -6.152e-06  
   -0.92000     5.557e-06   -4.234e-06   -6.236e-06  
   -0.91000     5.514e-06   -4.298e-06   -6.321e-06  
   -0.90000     5.469e-06   -4.363e-06   -6.406e-06  
   -0.89000     5.424e-06   -4.428e-06   -6.492e-06  
   -0.88000     5.379e-06   -4.495e-06   -6.578e-06  
   -0.87000     5.332e-06   -4.563e-06   -6.664e-06  
   -0.86000     5.285e-06   -4.631e-06   -6.751e-06  
   -0.85000     5.238e-06   -4.700e-06   -6.837e-06  
   -0.84000     5.189e-06   -4.770e-06   -6.924e-06  
   -0.83000     5.140e-06   -4.841e-06   -7.011e-06  
   -0.82000     5.090e-06   -4.913e-06   -7.098e-06  
   -0.81000     5.040e-06   -4.986e-06   -7.185e-06  
   -0.80000     4.988e-06   -5.059e-06   -7.271e-06  
   -0.79000     4.936e-06   -5.134e-06   -7.357e-06  
   -0.78000     4.883e-06   -5.209e-06   -7.442e-06  
   -0.77000     4.830e-06   -5.285e-06   -7.527e-06  
   -0.76000     4.775e-06   -5.362e-06   -7.610e-06  
   -0.75000     4.720e-06   -5.440e-06   -7.693e-06  
   -0.74000     4.664e-06   -5.518e-06   -7.775e-06  
   -0.73000     4.607e-06   -5.598e-06   -7.855e-06  
   -0.72000     4.550e-06   -5.678e-06   -7.933e-06  
   -0.71000     4.491e-06   -5.759e-06   -8.010e-06  
   -0.70000     4.432e-06   -5.840e-06   -8.085e-06  
   -0.69000     4.372e-06   -5.922e-06   -8.157e-06  
   -0.68000     4.311e-06   -6.005e-06   -8.227e-06  
   -0.67000     4.250e-06   -6.089e-06   -8.294e-06  
   -0.66000     4.187e-06   -6.173e-06   -8.358e-06  
   -0.65000     4.124e-06   -6.258e-06   -8.417e-06  
   -0.64000     4.059e-06   -6.343e-06   -8.473e-06  
   -0.63000     3.994e-06   -6.429e-06   -8.525e-06  
   -0.62000     3.928e-06   -6.515e-06   -8.571e-06  
   -0.61000     3.861e-06   -6.601e-06   -8.612e-06  
   -0.60000     3.793e-06   -6.688e-06   -8.647e-06  
   -0.59000     3.725e-06   -6.775e-06   -8.676e-06  
   -0.58000     3.655e-06   -6.862e-06   -8.697e-06  
   -0.57000     3.585e-06   -6.949e-06   -8.710e-06  
   -0.56000     3.514e-06   -7.037e-06   -8.715e-06  
   -0.55000     3.442e-06   -7.123e-06   -8.710e-06  
   -0.54000     3.369e-06   -7.210e-06   -8.695e-06  
   -0.53000     3.295e-06   -7.296e-06   -8.668e-06  
   -0.52000     3.220e-06   -7.382e-06   -8.628e-06  
   -0.51000     3.145e-06   -7.467e-06   -8.575e-06  
   -0.50000     3.068e-06   -7.551e-06   -8.506e-06  
   -0.49000     2.991e-06   -7.635e-06   -8.421e-06  
   -0.48000     2.913e-06   -7.717e-06   -8.318e-06  
   -0.47000     2.834e-06   -7.797e-06   -8.195e-06  
   -0.46000     2.755e-06   -7.876e-06   -8.049e-06  
   -0.45000     2.675e-06   -7.953e-06   -7.880e-06  
   -0.44000     2.594e-06   -8.027e-06   -7.684e-06  
   -0.43000     2.512e-06   -8.099e-06   -7.458e-06  
   -0.42000     2.430e-06   -8.168e-06   -7.201e-06  
   -0.41000     2.347e-06   -8.234e-06   -6.908e-06  
   -0.40000     2.263e-06   -8.296e-06   -6.576e-06  
   -0.39000     2.179e-06   -8.354e-06   -6.201e-06  
   -0.38000     2.095e-06   -8.407e-06   -5.777e-06  
   -0.37000     2.010e-06   -8.455e-06   -5.301e-06  
   -0.36000     1.924e-06   -8.496e-06   -4.766e-06  
   -0.35000     1.839e-06   -8.531e-06   -4.166e-06  
   -0.34000     1.753e-06   -8.559e-06   -3.493e-06  
   -0.33000     1.667e-06   -8.578e-06   -2.739e-06  
   -0.32000     1.581e-06   -8.587e-06   -1.896e-06  
   -0.31000     1.495e-06   -8.586e-06   -9.528e-07  
   -0.30000     1.410e-06   -8.573e-06    1.025e-07  
   -0.29000     1.325e-06   -8.547e-06    1.282e-06  
   -0.28000     1.240e-06   -8.506e-06    2.601e-06  
   -0.27000     1.157e-06   -8.449e-06    4.074e-06  
   -0.26000     1.074e-06   -8.374e-06    5.719e-06  
   -0.25000     9.923e-07   -8.278e-06    7.555e-06  
   -0.24000     9.121e-07   -8.159e-06    9.600e-06  
   -0.23000     8.337e-07   -8.015e-06    1.187e-05  
   -0.22000     7.573e-07   -7.843e-06    1.440e-05  
   -0.21000     6.832e-07   -7.641e-06    1.718e-05  
   -0.20000     6.119e-07   -7.406e-06    2.022e-05  
   -0.19000     5.436e-07   -7.135e-06    2.352e-05  
   -0.18000     4.788e-07   -6.828e-06    2.704e-05  
   -0.17000     4.177e-07   -6.484e-06    3.072e-05  
   -0.16000     3.609e-07   -6.102e-06    3.447e-05  
   -0.15000     3.085e-07   -5.685e-06    3.817e-05  
   -0.14000     2.609e-07   -5.237e-06    4.167e-05  
   -0.13000     2.181e-07   -4.765e-06    4.478e-05  
   -0.12000     1.803e-07   -4.276e-06    4.725e-05  
   -0.11000     1.474e-07   -3.782e-06    4.887e-05  
   -0.10000     1.191e-07   -3.293e-06    4.944e-05  
 -9.0000e-02    9.530e-08   -2.823e-06    4.884e-05  
 -8.0000e-02    7.552e-08   -2.382e-06    4.703e-05  
 -7.0000e-02    5.932e-08   -1.979e-06    4.412e-05  
 -6.0000e-02    4.625e-08   -1.620e-06    4.032e-05  
 -5.0000e-02    3.582e-08   -1.308e-06    3.590e-05  
 -4.0000e-02    2.759e-08   -1.043e-06    3.119e-05  
 -3.0000e-02    2.115e-08   -8.229e-07    2.647e-05  
 -2.0000e-02    1.616e-08   -6.433e-07    2.201e-05  
 -1.0000e-02    1.231e-08   -4.991e-07    1.796e-05  
    0.          9.363e-09   -3.848e-07    1.442e-05  
  1.0000e-02    7.108e-09   -2.952e-07    1.143e-05  
  2.0000e-02    5.389e-09   -2.255e-07    8.960e-06  
  3.0000e-02    4.083e-09   -1.718e-07    6.962e-06  
  4.0000e-02    3.092e-09   -1.306e-07    5.371e-06  
  5.0000e-02    2.340e-09   -9.913e-08    4.122e-06  
  6.0000e-02    1.771e-09   -7.514e-08    3.149e-06  
  7.0000e-02    1.340e-09   -5.691e-08    2.399e-06  
  8.0000e-02    1.015e-09   -4.307e-08    1.823e-06  
  9.0000e-02    7.680e-10   -3.259e-08    1.383e-06  
    0.10000     5.815e-10   -2.466e-08    1.048e-06  
    0.11000     4.404e-10   -1.865e-08    7.932e-07  
    0.12000     3.336e-10   -1.411e-08    6.006e-07  
    0.13000     2.528e-10   -1.068e-08    4.541e-07  
    0.14000     1.917e-10   -8.080e-09    3.433e-07  
    0.15000     1.453e-10   -6.117e-09    2.597e-07  
    0.16000     1.103e-10   -4.631e-09    1.963e-07  
    0.17000     8.369e-11   -3.508e-09    1.486e-07  
    0.18000     6.354e-11   -2.658e-09    1.123e-07  
    0.19000     4.827e-11   -2.014e-09    8.498e-08  
    0.20000     3.670e-11   -1.527e-09    6.438e-08  
    0.21000     2.790e-11   -1.157e-09    4.874e-08  
    0.22000     2.123e-11   -8.804e-10    3.695e-08  
    0.23000     1.616e-11   -6.665e-10    2.771e-08  
    0.24000     1.231e-11   -5.066e-10    2.139e-08  
    0.25000     9.400e-12   -3.851e-10    1.599e-08  
    0.26000     7.162e-12   -2.913e-10    1.215e-08  
    0.27000     5.471e-12   -2.238e-10    9.379e-09  
    0.28000     4.178e-12   -1.691e-10    6.750e-09  
    0.29000     3.219e-12   -1.293e-10    5.471e-09  
    0.30000     2.451e-12   -9.592e-11    3.979e-09  
    0.31000     1.883e-12   -7.674e-11    3.340e-09  
    0.32000     1.450e-12   -5.684e-11    1.918e-09  
    0.33000     1.123e-12   -4.334e-11    1.990e-09  
    0.34000     8.740e-13   -3.268e-11    1.350e-09  
    0.35000     6.821e-13   -2.487e-11    1.066e-09  
    0.36000     5.400e-13   -1.918e-11    7.816e-10  
    0.37000     4.121e-13   -1.421e-11    5.684e-10  
    0.38000     3.340e-13   -1.279e-11    4.974e-10  
    0.39000     2.700e-13   -7.816e-12    1.421e-10  
    0.40000     2.274e-13   -6.395e-12    4.974e-10  
    0.41000     1.776e-13   -4.263e-12    1.421e-10  
    0.42000     1.492e-13   -4.974e-12    2.132e-10  
    0.43000     1.279e-13   -2.842e-12   -7.105e-11  
    0.44000     1.066e-13   -2.132e-12    2.132e-10  
    0.45000     9.237e-14   -2.132e-12    7.105e-11  
    0.46000     7.816e-14   -1.421e-12      0.       
    0.47000     7.105e-14   -1.421e-12    7.105e-11  
    0.48000     7.105e-14   -7.105e-13      0.       
    0.49000     6.395e-14      0.         7.105e-11  
    0.50000     6.395e-14   -7.105e-13    7.105e-11  
    0.51000     6.395e-14      0.        -7.105e-11  
    0.52000     5.684e-14      0.         7.105e-11  
    0.53000     5.684e-14   -7.105e-13      0.       
    0.54000     4.974e-14      0.        -7.105e-11  
    0.55000     4.974e-14   -7.105e-13    7.105e-11  
    0.56000     4.974e-14      0.        -7.105e-11  
    0.57000     4.974e-14      0.         7.105e-11  
    0.58000     4.974e-14      0.           0.       
    0.59000     4.974e-14      0.           0.       
    0.60000     4.974e-14      0.           0.       
    0.61000     4.974e-14      0.           0.       
    0.62000     4.974e-14      0.           0.       
    0.63000     4.974e-14      0.           0.       
    0.64000     4.974e-14      0.           0.       
    0.65000     4.974e-14      0.           0.       
    0.66000     4.974e-14      0.           0.       
    0.67000     5.684e-14      0.           0.       
    0.68000     5.684e-14    7.105e-13      0.       
    0.69000     4.974e-14      0.         7.105e-11  
    0.70000     4.974e-14   -7.105e-13   -7.105e-11  
    0.71000     4.974e-14      0.        -7.105e-11  
    0.72000     4.974e-14      0.         7.105e-11  
    0.73000     4.974e-14      0.           0.       
    0.74000     4.974e-14      0.           0.       
    0.75000     4.974e-14      0.           0.       
    0.76000     4.974e-14      0.           0.       
    0.77000     4.974e-14      0.           0.       
    0.78000     4.974e-14      0.           0.       
    0.79000     4.974e-14      0.           0.       
    0.80000     4.974e-14      0.           0.       
    0.81000     4.974e-14      0.           0.       
    0.82000     4.974e-14      0.           0.       
    0.83000     4.974e-14      0.           0.       
    0.84000     4.974e-14      0.           0.       
    0.85000     4.974e-14      0.           0.       
    0.86000     4.974e-14      0.           0.       
    0.87000     4.974e-14      0.           0.       
    0.88000     4.974e-14      0.           0.       
    0.89000     4.974e-14      0.           0.       
    0.90000     4.974e-14      0.           0.       
    0.91000     4.974e-14      0.           0.       
    0.92000     4.974e-14      0.           0.       
    0.93000     4.974e-14      0.           0.       
    0.94000     4.974e-14      0.           0.       
    0.95000     4.974e-14      0.           0.       
    0.96000     4.974e-14      0.           0.       
    0.97000     4.974e-14      0.           0.       
    0.98000     4.974e-14      0.           0.       
    0.99000     4.974e-14      0.           0.       
    1.00000     4.974e-14      0.           0.       
    1.01000     4.974e-14      0.           0.       
    1.02000     4.974e-14      0.           0.       
    1.03000     4.974e-14      0.           0.       
    1.04000     4.974e-14      0.           0.       
    1.05000     4.974e-14      0.           0.       
    1.06000     4.974e-14      0.           0.       
    1.07000     4.974e-14      0.           0.       
    1.08000     4.974e-14      0.           0.       
    1.09000     4.974e-14      0.           0.       
    1.10000     4.974e-14      0.           0.       
    1.11000     4.974e-14      0.           0.       
    1.12000     4.974e-14      0.           0.       
    1.13000     4.974e-14      0.           0.       
    1.14000     4.974e-14      0.           0.       
    1.15000     4.974e-14      0.           0.       
    1.16000     4.974e-14      0.           0.       
    1.17000     4.974e-14      0.           0.       
    1.18000     4.974e-14      0.           0.       
    1.19000     4.974e-14      0.           0.       
    1.20000     4.974e-14      0.           0.       
    1.21000     4.974e-14      0.           0.       
    1.22000     4.974e-14      0.           0.       
    1.23000     4.974e-14      0.           0.       
    1.24000     4.974e-14      0.           0.       
    1.25000     4.974e-14      0.           0.       
    1.26000     4.974e-14      0.           0.       
    1.27000     4.974e-14      0.           0.       
    1.28000     4.974e-14      0.           0.       
    1.29000     4.974e-14      0.           0.       
    1.30000     4.974e-14      0.           0.       
y
-----------------------------------------------
 ******  
 *sample netlist for bsim6

  ******  dc transfer curves tnom=  25.000 temp=  25.000 *****

   *** source        0:vb =   -0.2000        ***

x

        volt    param        param        param      
                    ids          gm           gm2    
   -1.30000     6.885e-06   -3.826e-14      0.       
   -1.29000     6.861e-06    6.885e-04   -3.826e-12  
   -1.28000     6.837e-06   -2.403e-06    6.885e-02  
   -1.27000     6.812e-06   -2.440e-06   -6.909e-02  
   -1.26000     6.787e-06   -2.479e-06   -3.790e-06  
   -1.25000     6.761e-06   -2.518e-06   -3.847e-06  
   -1.24000     6.735e-06   -2.558e-06   -3.906e-06  
   -1.23000     6.709e-06   -2.598e-06   -3.964e-06  
   -1.22000     6.682e-06   -2.639e-06   -4.024e-06  
   -1.21000     6.655e-06   -2.680e-06   -4.085e-06  
   -1.20000     6.627e-06   -2.722e-06   -4.146e-06  
   -1.19000     6.599e-06   -2.765e-06   -4.208e-06  
   -1.18000     6.571e-06   -2.808e-06   -4.272e-06  
   -1.17000     6.542e-06   -2.852e-06   -4.336e-06  
   -1.16000     6.512e-06   -2.897e-06   -4.401e-06  
   -1.15000     6.482e-06   -2.942e-06   -4.467e-06  
   -1.14000     6.452e-06   -2.988e-06   -4.533e-06  
   -1.13000     6.421e-06   -3.035e-06   -4.601e-06  
   -1.12000     6.390e-06   -3.082e-06   -4.669e-06  
   -1.11000     6.358e-06   -3.131e-06   -4.739e-06  
   -1.10000     6.326e-06   -3.179e-06   -4.809e-06  
   -1.09000     6.293e-06   -3.229e-06   -4.880e-06  
   -1.08000     6.260e-06   -3.279e-06   -4.952e-06  
   -1.07000     6.226e-06   -3.330e-06   -5.026e-06  
   -1.06000     6.192e-06   -3.382e-06   -5.099e-06  
   -1.05000     6.157e-06   -3.434e-06   -5.174e-06  
   -1.04000     6.121e-06   -3.488e-06   -5.250e-06  
   -1.03000     6.085e-06   -3.542e-06   -5.326e-06  
   -1.02000     6.049e-06   -3.597e-06   -5.404e-06  
   -1.01000     6.012e-06   -3.652e-06   -5.482e-06  
   -1.00000     5.974e-06   -3.709e-06   -5.561e-06  
   -0.99000     5.936e-06   -3.766e-06   -5.641e-06  
   -0.98000     5.897e-06   -3.824e-06   -5.721e-06  
   -0.97000     5.858e-06   -3.883e-06   -5.802e-06  
   -0.96000     5.817e-06   -3.942e-06   -5.884e-06  
   -0.95000     5.777e-06   -4.003e-06   -5.967e-06  
   -0.94000     5.736e-06   -4.064e-06   -6.051e-06  
   -0.93000     5.694e-06   -4.126e-06   -6.134e-06  
   -0.92000     5.651e-06   -4.189e-06   -6.219e-06  
   -0.91000     5.608e-06   -4.253e-06   -6.304e-06  
   -0.90000     5.564e-06   -4.318e-06   -6.390e-06  
   -0.89000     5.520e-06   -4.384e-06   -6.477e-06  
   -0.88000     5.474e-06   -4.450e-06   -6.563e-06  
   -0.87000     5.429e-06   -4.518e-06   -6.650e-06  
   -0.86000     5.382e-06   -4.586e-06   -6.738e-06  
   -0.85000     5.335e-06   -4.655e-06   -6.825e-06  
   -0.84000     5.287e-06   -4.725e-06   -6.913e-06  
   -0.83000     5.238e-06   -4.796e-06   -7.000e-06  
   -0.82000     5.189e-06   -4.868e-06   -7.088e-06  
   -0.81000     5.139e-06   -4.940e-06   -7.176e-06  
   -0.80000     5.088e-06   -5.014e-06   -7.263e-06  
   -0.79000     5.036e-06   -5.088e-06   -7.350e-06  
   -0.78000     4.984e-06   -5.163e-06   -7.436e-06  
   -0.77000     4.931e-06   -5.239e-06   -7.522e-06  
   -0.76000     4.877e-06   -5.316e-06   -7.608e-06  
   -0.75000     4.822e-06   -5.394e-06   -7.692e-06  
   -0.74000     4.766e-06   -5.473e-06   -7.775e-06  
   -0.73000     4.710e-06   -5.552e-06   -7.857e-06  
   -0.72000     4.653e-06   -5.632e-06   -7.938e-06  
   -0.71000     4.595e-06   -5.713e-06   -8.016e-06  
   -0.70000     4.536e-06   -5.795e-06   -8.093e-06  
   -0.69000     4.477e-06   -5.877e-06   -8.168e-06  
   -0.68000     4.416e-06   -5.960e-06   -8.241e-06  
   -0.67000     4.355e-06   -6.044e-06   -8.310e-06  
   -0.66000     4.293e-06   -6.128e-06   -8.377e-06  
   -0.65000     4.230e-06   -6.213e-06   -8.440e-06  
   -0.64000     4.166e-06   -6.299e-06   -8.499e-06  
   -0.63000     4.101e-06   -6.385e-06   -8.555e-06  
   -0.62000     4.036e-06   -6.471e-06   -8.604e-06  
   -0.61000     3.969e-06   -6.558e-06   -8.650e-06  
   -0.60000     3.902e-06   -6.646e-06   -8.690e-06  
   -0.59000     3.834e-06   -6.733e-06   -8.724e-06  
   -0.58000     3.765e-06   -6.821e-06   -8.751e-06  
   -0.57000     3.695e-06   -6.909e-06   -8.770e-06  
   -0.56000     3.624e-06   -6.997e-06   -8.782e-06  
   -0.55000     3.552e-06   -7.084e-06   -8.784e-06  
   -0.54000     3.479e-06   -7.172e-06   -8.776e-06  
   -0.53000     3.406e-06   -7.259e-06   -8.759e-06  
   -0.52000     3.332e-06   -7.346e-06   -8.729e-06  
   -0.51000     3.256e-06   -7.432e-06   -8.686e-06  
   -0.50000     3.180e-06   -7.518e-06   -8.630e-06  
   -0.49000     3.104e-06   -7.603e-06   -8.557e-06  
   -0.48000     3.026e-06   -7.686e-06   -8.468e-06  
   -0.47000     2.947e-06   -7.768e-06   -8.361e-06  
   -0.46000     2.868e-06   -7.849e-06   -8.233e-06  
   -0.45000     2.788e-06   -7.928e-06   -8.083e-06  
   -0.44000     2.707e-06   -8.005e-06   -7.909e-06  
   -0.43000     2.626e-06   -8.080e-06   -7.707e-06  
   -0.42000     2.544e-06   -8.152e-06   -7.477e-06  
   -0.41000     2.461e-06   -8.222e-06   -7.214e-06  
   -0.40000     2.377e-06   -8.287e-06   -6.916e-06  
   -0.39000     2.293e-06   -8.349e-06   -6.578e-06  
   -0.38000     2.208e-06   -8.407e-06   -6.197e-06  
   -0.37000     2.123e-06   -8.460e-06   -5.768e-06  
   -0.36000     2.038e-06   -8.507e-06   -5.287e-06  
   -0.35000     1.952e-06   -8.549e-06   -4.747e-06  
   -0.34000     1.866e-06   -8.583e-06   -4.143e-06  
   -0.33000     1.780e-06   -8.611e-06   -3.466e-06  
   -0.32000     1.693e-06   -8.629e-06   -2.710e-06  
   -0.31000     1.607e-06   -8.638e-06   -1.866e-06  
   -0.30000     1.521e-06   -8.637e-06   -9.234e-07  
   -0.29000     1.435e-06   -8.624e-06    1.287e-07  
   -0.28000     1.349e-06   -8.598e-06    1.303e-06  
   -0.27000     1.264e-06   -8.557e-06    2.612e-06  
   -0.26000     1.180e-06   -8.500e-06    4.072e-06  
   -0.25000     1.097e-06   -8.425e-06    5.698e-06  
   -0.24000     1.014e-06   -8.330e-06    7.510e-06  
   -0.23000     9.338e-07   -8.212e-06    9.523e-06  
   -0.22000     8.547e-07   -8.070e-06    1.176e-05  
   -0.21000     7.777e-07   -7.901e-06    1.423e-05  
   -0.20000     7.030e-07   -7.701e-06    1.695e-05  
   -0.19000     6.310e-07   -7.470e-06    1.993e-05  
   -0.18000     5.620e-07   -7.204e-06    2.314e-05  
   -0.17000     4.963e-07   -6.903e-06    2.657e-05  
   -0.16000     4.344e-07   -6.564e-06    3.016e-05  
   -0.15000     3.766e-07   -6.190e-06    3.382e-05  
   -0.14000     3.232e-07   -5.781e-06    3.745e-05  
   -0.13000     2.744e-07   -5.341e-06    4.090e-05  
   -0.12000     2.305e-07   -4.876e-06    4.399e-05  
   -0.11000     1.915e-07   -4.393e-06    4.651e-05  
   -0.10000     1.573e-07   -3.903e-06    4.825e-05  
 -9.0000e-02    1.279e-07   -3.417e-06    4.902e-05  
 -8.0000e-02    1.029e-07   -2.945e-06    4.866e-05  
 -7.0000e-02    8.197e-08   -2.500e-06    4.715e-05  
 -6.0000e-02    6.475e-08   -2.090e-06    4.454e-05  
 -5.0000e-02    5.076e-08   -1.722e-06    4.100e-05  
 -4.0000e-02    3.953e-08   -1.399e-06    3.680e-05  
 -3.0000e-02    3.061e-08   -1.123e-06    3.224e-05  
 -2.0000e-02    2.360e-08   -8.919e-07    2.760e-05  
 -1.0000e-02    1.812e-08   -7.016e-07    2.314e-05  
    0.          1.388e-08   -5.475e-07    1.903e-05  
  1.0000e-02    1.060e-08   -4.245e-07    1.541e-05  
  2.0000e-02    8.086e-09   -3.274e-07    1.230e-05  
  3.0000e-02    6.161e-09   -2.515e-07    9.708e-06  
  4.0000e-02    4.690e-09   -1.926e-07    7.591e-06  
  5.0000e-02    3.568e-09   -1.471e-07    5.892e-06  
  6.0000e-02    2.714e-09   -1.122e-07    4.547e-06  
  7.0000e-02    2.063e-09   -8.543e-08    3.493e-06  
  8.0000e-02    1.569e-09   -6.500e-08    2.675e-06  
  9.0000e-02    1.193e-09   -4.943e-08    2.043e-06  
    0.10000     9.078e-10   -3.758e-08    1.557e-06  
    0.11000     6.907e-10   -2.856e-08    1.186e-06  
    0.12000     5.258e-10   -2.171e-08    9.015e-07  
    0.13000     4.003e-10   -1.650e-08    6.854e-07  
    0.14000     3.049e-10   -1.254e-08    5.208e-07  
    0.15000     2.324e-10   -9.538e-09    3.954e-07  
    0.16000     1.772e-10   -7.257e-09    3.007e-07  
    0.17000     1.351e-10   -5.520e-09    2.280e-07  
    0.18000     1.031e-10   -4.203e-09    1.737e-07  
    0.19000     7.874e-11   -3.201e-09    1.317e-07  
    0.20000     6.015e-11   -2.438e-09    1.002e-07  
    0.21000     4.599e-11   -1.859e-09    7.631e-08  
    0.22000     3.519e-11   -1.417e-09    5.791e-08  
    0.23000     2.693e-11   -1.080e-09    4.420e-08  
    0.24000     2.062e-11   -8.257e-10    3.368e-08  
    0.25000     1.581e-11   -6.310e-10    2.544e-08  
    0.26000     1.213e-11   -4.810e-10    1.947e-08  
    0.27000     9.322e-12   -3.681e-10    1.499e-08  
    0.28000     7.155e-12   -2.807e-10    1.130e-08  
    0.29000     5.507e-12   -2.167e-10    8.740e-09  
    0.30000     4.249e-12   -1.648e-10    6.395e-09  
    0.31000     3.276e-12   -1.258e-10    5.187e-09  
    0.32000     2.530e-12   -9.734e-11    3.908e-09  
    0.33000     1.961e-12   -7.461e-11    2.842e-09  
    0.34000     1.521e-12   -5.684e-11    2.274e-09  
    0.35000     1.187e-12   -4.405e-11    1.776e-09  
    0.36000     9.237e-13   -3.340e-11    1.279e-09  
    0.37000     7.248e-13   -2.629e-11    1.066e-09  
    0.38000     5.755e-13   -1.990e-11    7.105e-10  
    0.39000     4.547e-13   -1.492e-11    6.395e-10  
    0.40000     3.624e-13   -1.208e-11    4.974e-10  
    0.41000     2.984e-13   -9.237e-12    2.842e-10  
    0.42000     2.416e-13   -6.395e-12    2.842e-10  
    0.43000     1.990e-13   -5.684e-12    2.842e-10  
    0.44000     1.634e-13   -4.263e-12    7.105e-11  
    0.45000     1.492e-13   -3.553e-12    1.421e-10  
    0.46000     1.208e-13   -1.421e-12    7.105e-11  
    0.47000     9.948e-14   -2.842e-12    2.132e-10  
    0.48000     9.237e-14   -2.132e-12   -1.421e-10  
    0.49000     7.816e-14   -7.105e-13    7.105e-11  
    0.50000     7.816e-14   -1.421e-12    1.421e-10  
    0.51000     6.395e-14      0.        -7.105e-11  
    0.52000     7.105e-14   -1.421e-12    1.421e-10  
    0.53000     7.105e-14    7.105e-13   -1.421e-10  
    0.54000     5.684e-14      0.         2.132e-10  
    0.55000     5.684e-14   -1.421e-12   -7.105e-11  
    0.56000     4.974e-14      0.        -1.421e-10  
    0.57000     4.974e-14   -7.105e-13    1.421e-10  
    0.58000     5.684e-14      0.        -7.105e-11  
    0.59000     4.974e-14    7.105e-13    7.105e-11  
    0.60000     4.974e-14   -7.105e-13    7.105e-11  
    0.61000     4.263e-14      0.        -1.421e-10  
    0.62000     4.974e-14   -7.105e-13    7.105e-11  
    0.63000     4.974e-14    7.105e-13   -7.105e-11  
    0.64000     4.974e-14      0.         1.421e-10  
    0.65000     4.974e-14      0.        -7.105e-11  
    0.66000     4.974e-14      0.           0.       
    0.67000     4.974e-14      0.           0.       
    0.68000     4.974e-14      0.           0.       
    0.69000     4.974e-14      0.           0.       
    0.70000     4.974e-14      0.           0.       
    0.71000     5.684e-14      0.           0.       
    0.72000     4.974e-14    7.105e-13      0.       
    0.73000     4.974e-14   -7.105e-13    7.105e-11  
    0.74000     4.974e-14      0.        -1.421e-10  
    0.75000     4.974e-14      0.         7.105e-11  
    0.76000     4.974e-14      0.           0.       
    0.77000     4.974e-14      0.           0.       
    0.78000     4.974e-14      0.           0.       
    0.79000     4.974e-14      0.           0.       
    0.80000     4.974e-14      0.           0.       
    0.81000     4.974e-14      0.           0.       
    0.82000     4.974e-14      0.           0.       
    0.83000     4.974e-14      0.           0.       
    0.84000     4.974e-14      0.           0.       
    0.85000     4.974e-14      0.           0.       
    0.86000     4.974e-14      0.           0.       
    0.87000     4.974e-14      0.           0.       
    0.88000     4.974e-14      0.           0.       
    0.89000     4.974e-14      0.           0.       
    0.90000     4.974e-14      0.           0.       
    0.91000     4.974e-14      0.           0.       
    0.92000     4.974e-14      0.           0.       
    0.93000     4.974e-14      0.           0.       
    0.94000     4.974e-14      0.           0.       
    0.95000     4.974e-14      0.           0.       
    0.96000     4.974e-14      0.           0.       
    0.97000     4.974e-14      0.           0.       
    0.98000     4.974e-14      0.           0.       
    0.99000     4.974e-14      0.           0.       
    1.00000     4.974e-14      0.           0.       
    1.01000     4.974e-14      0.           0.       
    1.02000     4.974e-14      0.           0.       
    1.03000     4.974e-14      0.           0.       
    1.04000     4.974e-14      0.           0.       
    1.05000     4.974e-14      0.           0.       
    1.06000     4.974e-14      0.           0.       
    1.07000     4.974e-14      0.           0.       
    1.08000     4.974e-14      0.           0.       
    1.09000     4.974e-14      0.           0.       
    1.10000     4.974e-14      0.           0.       
    1.11000     4.974e-14      0.           0.       
    1.12000     4.974e-14      0.           0.       
    1.13000     4.974e-14      0.           0.       
    1.14000     4.974e-14      0.           0.       
    1.15000     4.974e-14      0.           0.       
    1.16000     4.974e-14      0.           0.       
    1.17000     4.974e-14      0.           0.       
    1.18000     4.974e-14      0.           0.       
    1.19000     4.974e-14      0.           0.       
    1.20000     4.974e-14      0.           0.       
    1.21000     4.974e-14      0.           0.       
    1.22000     4.974e-14      0.           0.       
    1.23000     4.974e-14      0.           0.       
    1.24000     4.974e-14      0.           0.       
    1.25000     4.974e-14      0.           0.       
    1.26000     4.974e-14      0.           0.       
    1.27000     4.974e-14      0.           0.       
    1.28000     4.974e-14      0.           0.       
    1.29000     4.974e-14      0.           0.       
    1.30000     4.974e-14      0.           0.       
y
-----------------------------------------------
 ******  
 *sample netlist for bsim6

  ******  dc transfer curves tnom=  25.000 temp=  25.000 *****

   *** source        0:vb =   -0.3000        ***

x

        volt    param        param        param      
                    ids          gm           gm2    
   -1.30000     6.970e-06   -3.826e-14      0.       
   -1.29000     6.946e-06    6.970e-04   -3.826e-12  
   -1.28000     6.922e-06   -2.361e-06    6.970e-02  
   -1.27000     6.898e-06   -2.399e-06   -6.993e-02  
   -1.26000     6.873e-06   -2.437e-06   -3.763e-06  
   -1.25000     6.848e-06   -2.476e-06   -3.820e-06  
   -1.24000     6.822e-06   -2.515e-06   -3.878e-06  
   -1.23000     6.796e-06   -2.555e-06   -3.937e-06  
   -1.22000     6.770e-06   -2.596e-06   -3.997e-06  
   -1.21000     6.743e-06   -2.637e-06   -4.057e-06  
   -1.20000     6.716e-06   -2.679e-06   -4.119e-06  
   -1.19000     6.688e-06   -2.721e-06   -4.181e-06  
   -1.18000     6.660e-06   -2.764e-06   -4.244e-06  
   -1.17000     6.632e-06   -2.808e-06   -4.308e-06  
   -1.16000     6.603e-06   -2.852e-06   -4.373e-06  
   -1.15000     6.573e-06   -2.897e-06   -4.439e-06  
   -1.14000     6.544e-06   -2.943e-06   -4.505e-06  
   -1.13000     6.513e-06   -2.989e-06   -4.573e-06  
   -1.12000     6.482e-06   -3.036e-06   -4.641e-06  
   -1.11000     6.451e-06   -3.084e-06   -4.711e-06  
   -1.10000     6.419e-06   -3.133e-06   -4.781e-06  
   -1.09000     6.387e-06   -3.182e-06   -4.853e-06  
   -1.08000     6.354e-06   -3.232e-06   -4.925e-06  
   -1.07000     6.321e-06   -3.283e-06   -4.998e-06  
   -1.06000     6.287e-06   -3.334e-06   -5.072e-06  
   -1.05000     6.252e-06   -3.386e-06   -5.146e-06  
   -1.04000     6.218e-06   -3.439e-06   -5.222e-06  
   -1.03000     6.182e-06   -3.493e-06   -5.299e-06  
   -1.02000     6.146e-06   -3.548e-06   -5.377e-06  
   -1.01000     6.109e-06   -3.603e-06   -5.454e-06  
   -1.00000     6.072e-06   -3.659e-06   -5.534e-06  
   -0.99000     6.035e-06   -3.716e-06   -5.614e-06  
   -0.98000     5.996e-06   -3.774e-06   -5.695e-06  
   -0.97000     5.957e-06   -3.832e-06   -5.776e-06  
   -0.96000     5.918e-06   -3.892e-06   -5.858e-06  
   -0.95000     5.878e-06   -3.952e-06   -5.941e-06  
   -0.94000     5.837e-06   -4.013e-06   -6.026e-06  
   -0.93000     5.795e-06   -4.075e-06   -6.109e-06  
   -0.92000     5.753e-06   -4.138e-06   -6.195e-06  
   -0.91000     5.711e-06   -4.202e-06   -6.280e-06  
   -0.90000     5.667e-06   -4.266e-06   -6.366e-06  
   -0.89000     5.624e-06   -4.332e-06   -6.454e-06  
   -0.88000     5.579e-06   -4.398e-06   -6.540e-06  
   -0.87000     5.534e-06   -4.465e-06   -6.628e-06  
   -0.86000     5.488e-06   -4.533e-06   -6.716e-06  
   -0.85000     5.441e-06   -4.602e-06   -6.804e-06  
   -0.84000     5.393e-06   -4.672e-06   -6.893e-06  
   -0.83000     5.345e-06   -4.743e-06   -6.981e-06  
   -0.82000     5.296e-06   -4.814e-06   -7.070e-06  
   -0.81000     5.247e-06   -4.887e-06   -7.158e-06  
   -0.80000     5.196e-06   -4.960e-06   -7.247e-06  
   -0.79000     5.145e-06   -5.034e-06   -7.335e-06  
   -0.78000     5.093e-06   -5.109e-06   -7.423e-06  
   -0.77000     5.041e-06   -5.185e-06   -7.510e-06  
   -0.76000     4.987e-06   -5.262e-06   -7.596e-06  
   -0.75000     4.933e-06   -5.340e-06   -7.682e-06  
   -0.74000     4.878e-06   -5.418e-06   -7.767e-06  
   -0.73000     4.823e-06   -5.498e-06   -7.851e-06  
   -0.72000     4.766e-06   -5.578e-06   -7.933e-06  
   -0.71000     4.709e-06   -5.659e-06   -8.014e-06  
   -0.70000     4.650e-06   -5.740e-06   -8.093e-06  
   -0.69000     4.591e-06   -5.823e-06   -8.170e-06  
   -0.68000     4.531e-06   -5.906e-06   -8.245e-06  
   -0.67000     4.471e-06   -5.990e-06   -8.317e-06  
   -0.66000     4.409e-06   -6.074e-06   -8.387e-06  
   -0.65000     4.347e-06   -6.159e-06   -8.453e-06  
   -0.64000     4.283e-06   -6.245e-06   -8.516e-06  
   -0.63000     4.219e-06   -6.332e-06   -8.575e-06  
   -0.62000     4.154e-06   -6.418e-06   -8.629e-06  
   -0.61000     4.088e-06   -6.506e-06   -8.680e-06  
   -0.60000     4.021e-06   -6.593e-06   -8.724e-06  
   -0.59000     3.954e-06   -6.681e-06   -8.763e-06  
   -0.58000     3.885e-06   -6.769e-06   -8.796e-06  
   -0.57000     3.816e-06   -6.858e-06   -8.822e-06  
   -0.56000     3.745e-06   -6.946e-06   -8.840e-06  
   -0.55000     3.674e-06   -7.035e-06   -8.850e-06  
   -0.54000     3.602e-06   -7.123e-06   -8.851e-06  
   -0.53000     3.529e-06   -7.211e-06   -8.842e-06  
   -0.52000     3.455e-06   -7.299e-06   -8.822e-06  
   -0.51000     3.380e-06   -7.387e-06   -8.790e-06  
   -0.50000     3.305e-06   -7.474e-06   -8.745e-06  
   -0.49000     3.228e-06   -7.560e-06   -8.686e-06  
   -0.48000     3.151e-06   -7.645e-06   -8.611e-06  
   -0.47000     3.073e-06   -7.729e-06   -8.520e-06  
   -0.46000     2.994e-06   -7.812e-06   -8.410e-06  
   -0.45000     2.914e-06   -7.893e-06   -8.279e-06  
   -0.44000     2.834e-06   -7.973e-06   -8.126e-06  
   -0.43000     2.752e-06   -8.050e-06   -7.949e-06  
   -0.42000     2.670e-06   -8.125e-06   -7.746e-06  
   -0.41000     2.588e-06   -8.198e-06   -7.512e-06  
   -0.40000     2.504e-06   -8.267e-06   -7.247e-06  
   -0.39000     2.420e-06   -8.333e-06   -6.947e-06  
   -0.38000     2.336e-06   -8.395e-06   -6.607e-06  
   -0.37000     2.251e-06   -8.453e-06   -6.225e-06  
   -0.36000     2.165e-06   -8.507e-06   -5.797e-06  
   -0.35000     2.079e-06   -8.554e-06   -5.315e-06  
   -0.34000     1.993e-06   -8.596e-06   -4.778e-06  
   -0.33000     1.906e-06   -8.631e-06   -4.176e-06  
   -0.32000     1.820e-06   -8.659e-06   -3.505e-06  
   -0.31000     1.733e-06   -8.678e-06   -2.756e-06  
   -0.30000     1.646e-06   -8.688e-06   -1.922e-06  
   -0.29000     1.559e-06   -8.687e-06   -9.923e-07  
   -0.28000     1.473e-06   -8.675e-06    4.206e-08  
   -0.27000     1.387e-06   -8.651e-06    1.194e-06  
   -0.26000     1.301e-06   -8.612e-06    2.476e-06  
   -0.25000     1.216e-06   -8.557e-06    3.901e-06  
   -0.24000     1.132e-06   -8.484e-06    5.485e-06  
   -0.23000     1.049e-06   -8.392e-06    7.245e-06  
   -0.22000     9.680e-07   -8.279e-06    9.196e-06  
   -0.21000     8.882e-07   -8.141e-06    1.136e-05  
   -0.20000     8.103e-07   -7.978e-06    1.374e-05  
   -0.19000     7.347e-07   -7.786e-06    1.636e-05  
   -0.18000     6.617e-07   -7.562e-06    1.923e-05  
   -0.17000     5.915e-07   -7.306e-06    2.232e-05  
   -0.16000     5.246e-07   -7.015e-06    2.562e-05  
   -0.15000     4.613e-07   -6.689e-06    2.908e-05  
   -0.14000     4.020e-07   -6.328e-06    3.262e-05  
   -0.13000     3.470e-07   -5.932e-06    3.615e-05  
   -0.12000     2.964e-07   -5.506e-06    3.955e-05  
   -0.11000     2.506e-07   -5.053e-06    4.266e-05  
   -0.10000     2.097e-07   -4.580e-06    4.529e-05  
 -9.0000e-02    1.735e-07   -4.097e-06    4.723e-05  
 -8.0000e-02    1.421e-07   -3.614e-06    4.831e-05  
 -7.0000e-02    1.152e-07   -3.141e-06    4.835e-05  
 -6.0000e-02    9.253e-08   -2.689e-06    4.730e-05  
 -5.0000e-02    7.366e-08   -2.269e-06    4.516e-05  
 -4.0000e-02    5.818e-08   -1.887e-06    4.206e-05  
 -3.0000e-02    4.565e-08   -1.548e-06    3.821e-05  
 -2.0000e-02    3.560e-08   -1.254e-06    3.389e-05  
 -1.0000e-02    2.763e-08   -1.004e-06    2.938e-05  
    0.          2.136e-08   -7.969e-07    2.493e-05  
  1.0000e-02    1.646e-08   -6.269e-07    2.076e-05  
  2.0000e-02    1.266e-08   -4.898e-07    1.699e-05  
  3.0000e-02    9.715e-09   -3.806e-07    1.371e-05  
  4.0000e-02    7.446e-09   -2.944e-07    1.093e-05  
  5.0000e-02    5.702e-09   -2.269e-07    8.621e-06  
  6.0000e-02    4.364e-09   -1.744e-07    6.747e-06  
  7.0000e-02    3.339e-09   -1.338e-07    5.247e-06  
  8.0000e-02    2.554e-09   -1.025e-07    4.060e-06  
  9.0000e-02    1.954e-09   -7.847e-08    3.130e-06  
    0.10000     1.495e-09   -6.002e-08    2.406e-06  
    0.11000     1.144e-09   -4.589e-08    1.845e-06  
    0.12000     8.759e-10   -3.508e-08    1.413e-06  
    0.13000     6.709e-10   -2.682e-08    1.081e-06  
    0.14000     5.141e-10   -2.050e-08    8.264e-07  
    0.15000     3.941e-10   -1.568e-08    6.314e-07  
    0.16000     3.023e-10   -1.200e-08    4.824e-07  
    0.17000     2.320e-10   -9.180e-09    3.685e-07  
    0.18000     1.782e-10   -7.029e-09    2.816e-07  
    0.19000     1.369e-10   -5.382e-09    2.152e-07  
    0.20000     1.053e-10   -4.126e-09    1.646e-07  
    0.21000     8.104e-11   -3.162e-09    1.256e-07  
    0.22000     6.241e-11   -2.427e-09    9.642e-08  
    0.23000     4.810e-11   -1.863e-09    7.347e-08  
    0.24000     3.709e-11   -1.432e-09    5.642e-08  
    0.25000     2.863e-11   -1.101e-09    4.313e-08  
    0.26000     2.213e-11   -8.455e-10    3.311e-08  
    0.27000     1.711e-11   -6.509e-10    2.551e-08  
    0.28000     1.325e-11   -5.016e-10    1.947e-08  
    0.29000     1.027e-11   -3.858e-10    1.492e-08  
    0.30000     7.965e-12   -2.984e-10    1.158e-08  
    0.31000     6.196e-12   -2.302e-10    8.740e-09  
    0.32000     4.810e-12   -1.769e-10    6.821e-09  
    0.33000     3.752e-12   -1.386e-10    5.329e-09  
    0.34000     2.920e-12   -1.059e-10    3.837e-09  
    0.35000     2.295e-12   -8.313e-11    3.268e-09  
    0.36000     1.791e-12   -6.253e-11    2.274e-09  
    0.37000     1.407e-12   -5.045e-11    2.061e-09  
    0.38000     1.116e-12   -3.837e-11    1.208e-09  
    0.39000     8.811e-13   -2.913e-11    1.208e-09  
    0.40000     7.034e-13   -2.345e-11    9.237e-10  
    0.41000     5.542e-13   -1.776e-11    5.684e-10  
    0.42000     4.547e-13   -1.492e-11    5.684e-10  
    0.43000     3.624e-13   -9.948e-12    2.842e-10  
    0.44000     2.984e-13   -9.237e-12    4.974e-10  
    0.45000     2.487e-13   -6.395e-12    7.105e-11  
    0.46000     1.990e-13   -4.974e-12    2.842e-10  
    0.47000     1.634e-13   -4.974e-12    1.421e-10  
    0.48000     1.492e-13   -3.553e-12      0.       
    0.49000     1.279e-13   -1.421e-12    1.421e-10  
    0.50000     1.066e-13   -2.132e-12    2.132e-10  
    0.51000     9.237e-14   -2.132e-12   -7.105e-11  
    0.52000     9.237e-14   -1.421e-12      0.       
    0.53000     7.816e-14      0.         7.105e-11  
    0.54000     7.816e-14   -1.421e-12    1.421e-10  
    0.55000     7.105e-14      0.        -1.421e-10  
    0.56000     6.395e-14   -7.105e-13    1.421e-10  
    0.57000     6.395e-14   -7.105e-13   -7.105e-11  
    0.58000     6.395e-14      0.           0.       
    0.59000     5.684e-14      0.         7.105e-11  
    0.60000     4.974e-14   -7.105e-13      0.       
    0.61000     4.974e-14   -7.105e-13   -7.105e-11  
    0.62000     4.974e-14      0.           0.       
    0.63000     5.684e-14      0.         7.105e-11  
    0.64000     5.684e-14    7.105e-13      0.       
    0.65000     4.974e-14      0.         7.105e-11  
    0.66000     4.974e-14   -7.105e-13   -7.105e-11  
    0.67000     4.974e-14      0.        -7.105e-11  
    0.68000     5.684e-14      0.         7.105e-11  
    0.69000     5.684e-14    7.105e-13      0.       
    0.70000     4.974e-14      0.         7.105e-11  
    0.71000     5.684e-14   -7.105e-13   -7.105e-11  
    0.72000     4.974e-14    7.105e-13   -7.105e-11  
    0.73000     4.974e-14   -7.105e-13    1.421e-10  
    0.74000     4.974e-14      0.        -1.421e-10  
    0.75000     4.974e-14      0.         7.105e-11  
    0.76000     4.974e-14      0.           0.       
    0.77000     4.263e-14      0.           0.       
    0.78000     4.974e-14   -7.105e-13      0.       
    0.79000     4.974e-14    7.105e-13   -7.105e-11  
    0.80000     4.974e-14      0.         1.421e-10  
    0.81000     4.974e-14      0.        -7.105e-11  
    0.82000     4.974e-14      0.           0.       
    0.83000     4.974e-14      0.           0.       
    0.84000     4.974e-14      0.           0.       
    0.85000     4.974e-14      0.           0.       
    0.86000     4.974e-14      0.           0.       
    0.87000     4.974e-14      0.           0.       
    0.88000     4.974e-14      0.           0.       
    0.89000     4.974e-14      0.           0.       
    0.90000     4.974e-14      0.           0.       
    0.91000     4.974e-14      0.           0.       
    0.92000     4.974e-14      0.           0.       
    0.93000     4.974e-14      0.           0.       
    0.94000     4.974e-14      0.           0.       
    0.95000     4.974e-14      0.           0.       
    0.96000     4.974e-14      0.           0.       
    0.97000     4.974e-14      0.           0.       
    0.98000     4.974e-14      0.           0.       
    0.99000     4.974e-14      0.           0.       
    1.00000     4.974e-14      0.           0.       
    1.01000     4.974e-14      0.           0.       
    1.02000     4.974e-14      0.           0.       
    1.03000     4.974e-14      0.           0.       
    1.04000     4.974e-14      0.           0.       
    1.05000     4.974e-14      0.           0.       
    1.06000     4.974e-14      0.           0.       
    1.07000     4.974e-14      0.           0.       
    1.08000     4.974e-14      0.           0.       
    1.09000     4.974e-14      0.           0.       
    1.10000     4.974e-14      0.           0.       
    1.11000     4.974e-14      0.           0.       
    1.12000     4.974e-14      0.           0.       
    1.13000     4.974e-14      0.           0.       
    1.14000     4.974e-14      0.           0.       
    1.15000     4.974e-14      0.           0.       
    1.16000     4.974e-14      0.           0.       
    1.17000     4.974e-14      0.           0.       
    1.18000     4.974e-14      0.           0.       
    1.19000     4.974e-14      0.           0.       
    1.20000     4.974e-14      0.           0.       
    1.21000     4.974e-14      0.           0.       
    1.22000     4.974e-14      0.           0.       
    1.23000     4.974e-14      0.           0.       
    1.24000     4.974e-14      0.           0.       
    1.25000     4.974e-14      0.           0.       
    1.26000     4.974e-14      0.           0.       
    1.27000     4.974e-14      0.           0.       
    1.28000     4.974e-14      0.           0.       
    1.29000     4.974e-14      0.           0.       
    1.30000     4.974e-14      0.           0.       
y
-----------------------------------------------

          ***** job concluded
1****** HSPICE -- G-2012.06 32-BIT (May 27 2012) RHEL32 ******                  
 ******  
 *sample netlist for bsim6

  ******  job statistics summary tnom=  25.000 temp=  25.000 *****
  
  
 ******  Machine Information  ******
 CPU:
 model name	: AMD Opteron(tm) Processor 248
 cpu MHz	: 2200.048
  
 OS:
 Linux version 2.6.9-22.EL (bhcompile@crowe.devel.redhat.com) (gcc version 3.4.4 20050721 (Red Hat 3.4.4-2)) #1 Mon Sep 19 17:49:49 EDT 2005


  ******  HSPICE Threads Information  ******

  Command Line Threads Count :     1
  Available CPU Count        :     1
  Actual Threads Count       :     1


  ******  Circuit Statistics  ******
  # nodes       =      15 # elements   =       5
  # resistors   =       0 # capacitors =       0 # inductors   =       0
  # mutual_inds =       0 # vccs       =       0 # vcvs        =       0
  # cccs        =       0 # ccvs       =       0 # volt_srcs   =       4
  # curr_srcs   =       0 # diodes     =       0 # bjts        =       0
  # jfets       =       0 # mosfets    =       0 # U elements  =       0
  # T elements  =       0 # W elements =       0 # B elements  =       0
  # S elements  =       0 # P elements =       0 # va device   =       1
  # vector_srcs =       0 # N elements =       0


  ******  Runtime Statistics (seconds)  ******

  analysis           time    # points   tot. iter  conv.iter
  op point           0.00           1           0
  dc sweep           0.21        1044        2096
  readin             3.37
  errchk             0.05
  setup              0.00
  output             0.01


           peak memory used        114.34 megabytes
           total cpu time            3.64 seconds
           total elapsed time       14.46 seconds
           job started at     15:35:41 03/19/2014
           job ended   at     15:35:55 03/19/2014


 lic: Release hspice token(s) 
 lic: total license checkout elapse time:        0.20(s)


pVA concluded on Wed Mar 19 15:35:55 2014

