Using: /cad/synopsys/Hspice/G-2012.06/hspice/linux/hspice idvg_nmos.sp
 ****** HSPICE -- G-2012.06 32-BIT (May 27 2012) RHEL32 ******                  
  Copyright (C) 2012 Synopsys, Inc. All Rights Reserved.                        
  Unpublished-rights reserved under US copyright laws.
  This program is protected by law and is subject to the
  terms and conditions of the license agreement from Synopsys.
  Use of this program is your acceptance to be bound by the
  license agreement. HSPICE is the trademark of Synopsys, Inc.
  Input File: idvg_nmos.sp                                                      
  Command line options: idvg_nmos.sp
 lic:  
 lic: FLEXlm: v10.8 
 lic: USER:   agarwalh             HOSTNAME: xcel1.vlsi.iitk.ac.in 
 lic: HOSTID: 0008a1953eea         PID:      17739 
 lic: Using FLEXlm license file: 
 lic: 27000@xcel0 
 lic: Checkout 1 hspice 
 lic: License/Maintenance for hspice will expire on 15-jun-2014/2013.03 
 lic: 1(in_use)/5(total) FLOATING license(s) on SERVER xcel0 
 lic:   
 Init: read install configuration file: /cad/synopsys/Hspice/G-2012.06/hspice/meta.cfg


 --------------------------------------------------------
|                                                        |
|          Synopsys Unified Verilog-A (pVA v2.0)         |
|                                                        |
|           Machine Name: xcel1.vlsi.iitk.ac.in          |
| Copyright (c) 2011 Synopsys Inc., All Rights Reserved. |
|                                                        |
 --------------------------------------------------------

libepva built by pvamgr synmake_pva_build  on Tue May  1 20:03:16 PDT 2012
HSP_HOME:   /cad/synopsys/Hspice/G-2012.06/hspice
HSP_ARCH:   linux
HSP_GCC :   /cad/synopsys/Hspice/G-2012.06/hspice/GNU/amd64/gcc-4.5.2-static/bin/gcc -m32 
HSP_GCC_VER:   4.5.2
Working-Dir: /users/phd/agarwalh/synopsys_designs/BSIM6/Release_test/bsim6.1.1/bsim6.1.1
Args:        -p hsp -t spi -f idvg_nmos.pvadir/pvaHDL.lis -o idvg_nmos.pvadir 


Begin of pVA compiling on Wed Mar 19 15:35:31 2014

Parsing './bsim6.va'
Parsing include file '/cad/synopsys/Hspice/G-2012.06/hspice/include/constants.vams'
Parsing include file '/cad/synopsys/Hspice/G-2012.06/hspice/include/disciplines.vams'

End of pVA compiling on Wed Mar 19 15:35:31 2014


End of build pVA DB on Wed Mar 19 15:35:31 2014


idvg_nmos.pvadir/pvaRTL_linux.so is reused

End of pVA elaboration on Wed Mar 19 15:35:31 2014

 Loading pVA library idvg_nmos.pvadir/pvaRTL_linux.so...
1****** HSPICE -- G-2012.06 32-BIT (May 27 2012) RHEL32 ******                  
 ******  
 *sample netlist for bsim6

  ******  circuit name directory
 circuit number to circuit name directory
   number circuitname                     definition         multiplier
        0 main circuit
        1 x1.                             bsim6(va)          1.00 
*pvaI* Creating Verilog-A module 'bsim6' for X1
  
      
 *****************************************************************
 ******  option summary
 ******
 runlvl  = 3         bypass  = 2         
  Opening plot unit= 15
 file=idvg_nmos.pa0                                                            

 ******  
 *sample netlist for bsim6

  ******  dc transfer curves tnom=  25.000 temp=  25.000 *****

   *** source        0:vb =   -0.3000        ***

x

        volt    param        param        param        current    
                    ids          gm           gm2          vd     
   -1.30000     1.342e-08      0.           0.        -1.342e-08  
   -1.29000     1.308e-08    1.342e-06      0.        -1.308e-08  
   -1.28000     1.275e-08   -3.398e-08    1.342e-04   -1.275e-08  
   -1.27000     1.243e-08   -3.327e-08   -1.376e-04   -1.243e-08  
   -1.26000     1.211e-08   -3.256e-08    7.134e-08   -1.211e-08  
   -1.25000     1.180e-08   -3.187e-08    7.049e-08   -1.180e-08  
   -1.24000     1.149e-08   -3.119e-08    6.899e-08   -1.149e-08  
   -1.23000     1.119e-08   -3.052e-08    6.821e-08   -1.119e-08  
   -1.22000     1.090e-08   -2.986e-08    6.651e-08   -1.090e-08  
   -1.21000     1.061e-08   -2.922e-08    6.594e-08   -1.061e-08  
   -1.20000     1.033e-08   -2.858e-08    6.459e-08   -1.033e-08  
   -1.19000     1.006e-08   -2.796e-08    6.366e-08   -1.006e-08  
   -1.18000     9.794e-09   -2.734e-08    6.246e-08   -9.794e-09  
   -1.17000     9.532e-09   -2.674e-08    6.132e-08   -9.532e-09  
   -1.16000     9.276e-09   -2.615e-08    6.033e-08   -9.276e-09  
   -1.15000     9.027e-09   -2.556e-08    5.933e-08   -9.027e-09  
   -1.14000     8.782e-09   -2.499e-08    5.841e-08   -8.782e-09  
   -1.13000     8.544e-09   -2.443e-08    5.720e-08   -8.544e-09  
   -1.12000     8.310e-09   -2.388e-08    5.627e-08   -8.310e-09  
   -1.11000     8.082e-09   -2.333e-08    5.521e-08   -8.082e-09  
   -1.10000     7.859e-09   -2.280e-08    5.443e-08   -7.859e-09  
   -1.09000     7.642e-09   -2.228e-08    5.322e-08   -7.642e-09  
   -1.08000     7.429e-09   -2.176e-08    5.244e-08   -7.429e-09  
   -1.07000     7.222e-09   -2.126e-08    5.130e-08   -7.222e-09  
   -1.06000     7.019e-09   -2.076e-08    5.059e-08   -7.019e-09  
   -1.05000     6.821e-09   -2.027e-08    4.952e-08   -6.821e-09  
   -1.04000     6.628e-09   -1.980e-08    4.867e-08   -6.628e-09  
   -1.03000     6.439e-09   -1.933e-08    4.775e-08   -6.439e-09  
   -1.02000     6.255e-09   -1.887e-08    4.690e-08   -6.255e-09  
   -1.01000     6.075e-09   -1.842e-08    4.597e-08   -6.075e-09  
   -1.00000     5.900e-09   -1.798e-08    4.519e-08   -5.900e-09  
   -0.99000     5.729e-09   -1.754e-08    4.412e-08   -5.729e-09  
   -0.98000     5.562e-09   -1.711e-08    4.349e-08   -5.562e-09  
   -0.97000     5.399e-09   -1.670e-08    4.270e-08   -5.399e-09  
   -0.96000     5.240e-09   -1.629e-08    4.171e-08   -5.240e-09  
   -0.95000     5.085e-09   -1.588e-08    4.093e-08   -5.085e-09  
   -0.94000     4.934e-09   -1.549e-08    4.029e-08   -4.934e-09  
   -0.93000     4.787e-09   -1.510e-08    3.922e-08   -4.787e-09  
   -0.92000     4.643e-09   -1.473e-08    3.872e-08   -4.643e-09  
   -0.91000     4.503e-09   -1.436e-08    3.787e-08   -4.503e-09  
   -0.90000     4.367e-09   -1.399e-08    3.695e-08   -4.367e-09  
   -0.89000     4.234e-09   -1.364e-08    3.638e-08   -4.234e-09  
   -0.88000     4.104e-09   -1.329e-08    3.574e-08   -4.104e-09  
   -0.87000     3.978e-09   -1.295e-08    3.482e-08   -3.978e-09  
   -0.86000     3.855e-09   -1.261e-08    3.418e-08   -3.855e-09  
   -0.85000     3.736e-09   -1.228e-08    3.347e-08   -3.736e-09  
   -0.84000     3.619e-09   -1.196e-08    3.268e-08   -3.619e-09  
   -0.83000     3.506e-09   -1.165e-08    3.233e-08   -3.506e-09  
   -0.82000     3.396e-09   -1.134e-08    3.119e-08   -3.396e-09  
   -0.81000     3.288e-09   -1.104e-08    3.091e-08   -3.288e-09  
   -0.80000     3.184e-09   -1.074e-08    2.998e-08   -3.184e-09  
   -0.79000     3.082e-09   -1.045e-08    2.956e-08   -3.082e-09  
   -0.78000     2.983e-09   -1.017e-08    2.892e-08   -2.983e-09  
   -0.77000     2.887e-09   -9.899e-09    2.807e-08   -2.887e-09  
   -0.76000     2.793e-09   -9.627e-09    2.750e-08   -2.793e-09  
   -0.75000     2.702e-09   -9.363e-09    2.721e-08   -2.702e-09  
   -0.74000     2.613e-09   -9.106e-09    2.643e-08   -2.613e-09  
   -0.73000     2.527e-09   -8.853e-09    2.565e-08   -2.527e-09  
   -0.72000     2.444e-09   -8.605e-09    2.530e-08   -2.444e-09  
   -0.71000     2.362e-09   -8.365e-09    2.480e-08   -2.362e-09  
   -0.70000     2.283e-09   -8.129e-09    2.402e-08   -2.283e-09  
   -0.69000     2.207e-09   -7.900e-09    2.359e-08   -2.207e-09  
   -0.68000     2.132e-09   -7.673e-09    2.295e-08   -2.132e-09  
   -0.67000     2.060e-09   -7.454e-09    2.267e-08   -2.060e-09  
   -0.66000     1.989e-09   -7.239e-09    2.196e-08   -1.989e-09  
   -0.65000     1.921e-09   -7.029e-09    2.146e-08   -1.921e-09  
   -0.64000     1.855e-09   -6.825e-09    2.096e-08   -1.855e-09  
   -0.63000     1.791e-09   -6.624e-09    2.046e-08   -1.791e-09  
   -0.62000     1.728e-09   -6.430e-09    2.004e-08   -1.728e-09  
   -0.61000     1.668e-09   -6.237e-09    1.947e-08   -1.668e-09  
   -0.60000     1.609e-09   -6.055e-09    1.926e-08   -1.609e-09  
   -0.59000     1.552e-09   -5.871e-09    1.826e-08   -1.552e-09  
   -0.58000     1.497e-09   -5.695e-09    1.833e-08   -1.497e-09  
   -0.57000     1.443e-09   -5.521e-09    1.762e-08   -1.443e-09  
   -0.56000     1.391e-09   -5.353e-09    1.741e-08   -1.391e-09  
   -0.55000     1.341e-09   -5.189e-09    1.677e-08   -1.341e-09  
   -0.54000     1.292e-09   -5.029e-09    1.641e-08   -1.292e-09  
   -0.53000     1.245e-09   -4.874e-09    1.599e-08   -1.245e-09  
   -0.52000     1.199e-09   -4.721e-09    1.549e-08   -1.199e-09  
   -0.51000     1.155e-09   -4.574e-09    1.535e-08   -1.155e-09  
   -0.50000     1.112e-09   -4.427e-09    1.464e-08   -1.112e-09  
   -0.49000     1.071e-09   -4.289e-09    1.471e-08   -1.071e-09  
   -0.48000     1.031e-09   -4.151e-09    1.386e-08   -1.031e-09  
   -0.47000     9.917e-10   -4.020e-09    1.378e-08   -9.917e-10  
   -0.46000     9.541e-10   -3.889e-09    1.315e-08   -9.541e-10  
   -0.45000     9.177e-10   -3.762e-09    1.307e-08   -9.177e-10  
   -0.44000     8.825e-10   -3.639e-09    1.272e-08   -8.825e-10  
   -0.43000     8.485e-10   -3.519e-09    1.229e-08   -8.485e-10  
   -0.42000     8.156e-10   -3.403e-09    1.201e-08   -8.156e-10  
   -0.41000     7.838e-10   -3.289e-09    1.151e-08   -7.838e-10  
   -0.40000     7.530e-10   -3.182e-09    1.144e-08   -7.530e-10  
   -0.39000     7.234e-10   -3.072e-09    1.073e-08   -7.234e-10  
   -0.38000     6.947e-10   -2.969e-09    1.101e-08   -6.947e-10  
   -0.37000     6.670e-10   -2.866e-09    1.030e-08   -6.670e-10  
   -0.36000     6.403e-10   -2.768e-09    1.023e-08   -6.403e-10  
   -0.35000     6.145e-10   -2.673e-09    9.805e-09   -6.145e-10  
   -0.34000     5.896e-10   -2.582e-09    9.521e-09   -5.896e-10  
   -0.33000     5.656e-10   -2.488e-09    9.095e-09   -5.656e-10  
   -0.32000     5.424e-10   -2.402e-09    9.379e-09   -5.424e-10  
   -0.31000     5.201e-10   -2.315e-09    8.598e-09   -5.201e-10  
   -0.30000     4.986e-10   -2.233e-09    8.740e-09   -4.986e-10  
   -0.29000     4.778e-10   -2.152e-09    8.171e-09   -4.778e-10  
   -0.28000     4.579e-10   -2.071e-09    8.171e-09   -4.579e-10  
   -0.27000     4.387e-10   -1.994e-09    8.029e-09   -4.387e-10  
   -0.26000     4.203e-10   -1.918e-09    7.745e-09   -4.203e-10  
   -0.25000     4.026e-10   -1.842e-09    7.532e-09   -4.026e-10  
   -0.24000     3.857e-10   -1.768e-09    7.674e-09   -3.857e-10  
   -0.23000     3.696e-10   -1.691e-09    7.390e-09   -3.696e-10  
   -0.22000     3.542e-10   -1.616e-09    7.674e-09   -3.542e-10  
   -0.21000     3.396e-10   -1.536e-09    7.461e-09   -3.396e-10  
   -0.20000     3.260e-10   -1.454e-09    8.029e-09   -3.260e-10  
   -0.19000     3.134e-10   -1.364e-09    8.171e-09   -3.134e-10  
   -0.18000     3.018e-10   -1.264e-09    9.095e-09   -3.018e-10  
   -0.17000     2.917e-10   -1.153e-09    9.948e-09   -2.917e-10  
   -0.16000     2.831e-10   -1.019e-09    1.116e-08   -2.831e-10  
   -0.15000     2.765e-10   -8.576e-10    1.336e-08   -2.765e-10  
   -0.14000     2.724e-10   -6.580e-10    1.613e-08   -2.724e-10  
   -0.13000     2.717e-10   -4.057e-10    1.997e-08   -2.717e-10  
   -0.12000     2.753e-10   -7.390e-11    2.522e-08   -2.753e-10  
   -0.11000     2.846e-10    3.574e-10    3.318e-08   -2.846e-10  
   -0.10000     3.017e-10    9.337e-10    4.313e-08   -3.017e-10  
 -9.0000e-02    3.292e-10    1.707e-09    5.763e-08   -3.292e-10  
 -8.0000e-02    3.708e-10    2.750e-09    7.731e-08   -3.708e-10  
 -7.0000e-02    4.318e-10    4.167e-09    1.043e-07   -4.318e-10  
 -6.0000e-02    5.191e-10    6.095e-09    1.417e-07   -5.191e-10  
 -5.0000e-02    6.424e-10    8.730e-09    1.928e-07   -6.424e-10  
 -4.0000e-02    8.151e-10    1.233e-08    2.635e-07   -8.151e-10  
 -3.0000e-02    1.055e-09    1.726e-08    3.601e-07   -1.055e-09  
 -2.0000e-02    1.388e-09    2.402e-08    4.933e-07   -1.388e-09  
 -1.0000e-02    1.848e-09    3.329e-08    6.757e-07   -1.848e-09  
    0.          2.482e-09    4.599e-08    9.265e-07   -2.482e-09  
  1.0000e-02    3.355e-09    6.341e-08    1.270e-06   -3.355e-09  
  2.0000e-02    4.554e-09    8.727e-08    1.742e-06   -4.554e-09  
  3.0000e-02    6.201e-09    1.200e-07    2.387e-06   -6.201e-09  
  4.0000e-02    8.458e-09    1.646e-07    3.268e-06   -8.458e-09  
  5.0000e-02    1.155e-08    2.257e-07    4.469e-06   -1.155e-08  
  6.0000e-02    1.576e-08    3.088e-07    6.102e-06   -1.576e-08  
  7.0000e-02    2.150e-08    4.215e-07    8.309e-06   -2.150e-08  
  8.0000e-02    2.928e-08    5.738e-07    1.128e-05   -2.928e-08  
  9.0000e-02    3.979e-08    7.783e-07    1.523e-05   -3.979e-08  
    0.10000     5.387e-08    1.050e-06    2.044e-05   -5.387e-08  
    0.11000     7.261e-08    1.409e-06    2.721e-05   -7.261e-08  
    0.12000     9.730e-08    1.874e-06    3.583e-05   -9.730e-08  
    0.13000     1.294e-07    2.469e-06    4.654e-05   -1.294e-07  
    0.14000     1.706e-07    3.212e-06    5.943e-05   -1.706e-07  
    0.15000     2.226e-07    4.120e-06    7.435e-05   -2.226e-07  
    0.16000     2.871e-07    5.200e-06    9.082e-05   -2.871e-07  
    0.17000     3.655e-07    6.446e-06    1.080e-04   -3.655e-07  
    0.18000     4.590e-07    7.841e-06    1.246e-04   -4.590e-07  
    0.19000     5.684e-07    9.352e-06    1.394e-04   -5.684e-07  
    0.20000     6.939e-07    1.094e-05    1.511e-04   -6.939e-07  
    0.21000     8.355e-07    1.255e-05    1.586e-04   -8.355e-07  
    0.22000     9.924e-07    1.415e-05    1.616e-04   -9.924e-07  
    0.23000     1.164e-06    1.570e-05    1.600e-04   -1.164e-06  
    0.24000     1.349e-06    1.716e-05    1.544e-04   -1.349e-06  
    0.25000     1.546e-06    1.851e-05    1.458e-04   -1.546e-06  
    0.26000     1.755e-06    1.974e-05    1.350e-04   -1.755e-06  
    0.27000     1.973e-06    2.084e-05    1.231e-04   -1.973e-06  
    0.28000     2.200e-06    2.183e-05    1.106e-04   -2.200e-06  
    0.29000     2.435e-06    2.269e-05    9.830e-05   -2.435e-06  
    0.30000     2.675e-06    2.344e-05    8.646e-05   -2.675e-06  
    0.31000     2.922e-06    2.410e-05    7.536e-05   -2.922e-06  
    0.32000     3.173e-06    2.465e-05    6.512e-05   -3.173e-06  
    0.33000     3.429e-06    2.513e-05    5.579e-05   -3.429e-06  
    0.34000     3.687e-06    2.552e-05    4.734e-05   -3.687e-06  
    0.35000     3.948e-06    2.585e-05    3.972e-05   -3.948e-06  
    0.36000     4.212e-06    2.612e-05    3.284e-05   -4.212e-06  
    0.37000     4.476e-06    2.633e-05    2.665e-05   -4.476e-06  
    0.38000     4.743e-06    2.649e-05    2.107e-05   -4.743e-06  
    0.39000     5.009e-06    2.660e-05    1.603e-05   -5.009e-06  
    0.40000     5.276e-06    2.668e-05    1.147e-05   -5.276e-06  
    0.41000     5.544e-06    2.671e-05    7.338e-06   -5.544e-06  
    0.42000     5.810e-06    2.672e-05    3.592e-06   -5.810e-06  
    0.43000     6.077e-06    2.669e-05    1.864e-07   -6.077e-06  
    0.44000     6.342e-06    2.663e-05   -2.913e-06   -6.342e-06  
    0.45000     6.607e-06    2.655e-05   -5.739e-06   -6.607e-06  
    0.46000     6.870e-06    2.644e-05   -8.319e-06   -6.870e-06  
    0.47000     7.131e-06    2.631e-05   -1.068e-05   -7.131e-06  
    0.48000     7.391e-06    2.616e-05   -1.283e-05   -7.391e-06  
    0.49000     7.649e-06    2.600e-05   -1.481e-05   -7.649e-06  
    0.50000     7.906e-06    2.581e-05   -1.662e-05   -7.906e-06  
    0.51000     8.160e-06    2.562e-05   -1.828e-05   -8.160e-06  
    0.52000     8.411e-06    2.540e-05   -1.980e-05   -8.411e-06  
    0.53000     8.661e-06    2.518e-05   -2.119e-05   -8.661e-06  
    0.54000     8.908e-06    2.494e-05   -2.246e-05   -8.908e-06  
    0.55000     9.152e-06    2.470e-05   -2.363e-05   -9.152e-06  
    0.56000     9.394e-06    2.444e-05   -2.470e-05   -9.394e-06  
    0.57000     9.633e-06    2.417e-05   -2.567e-05   -9.633e-06  
    0.58000     9.869e-06    2.390e-05   -2.656e-05   -9.869e-06  
    0.59000     1.010e-05    2.362e-05   -2.737e-05   -1.010e-05  
    0.60000     1.033e-05    2.333e-05   -2.810e-05   -1.033e-05  
    0.61000     1.056e-05    2.304e-05   -2.876e-05   -1.056e-05  
    0.62000     1.078e-05    2.274e-05   -2.936e-05   -1.078e-05  
    0.63000     1.101e-05    2.244e-05   -2.989e-05   -1.101e-05  
    0.64000     1.122e-05    2.213e-05   -3.037e-05   -1.122e-05  
    0.65000     1.144e-05    2.182e-05   -3.079e-05   -1.144e-05  
    0.66000     1.165e-05    2.150e-05   -3.116e-05   -1.165e-05  
    0.67000     1.186e-05    2.118e-05   -3.149e-05   -1.186e-05  
    0.68000     1.207e-05    2.086e-05   -3.177e-05   -1.207e-05  
    0.69000     1.227e-05    2.054e-05   -3.200e-05   -1.227e-05  
    0.70000     1.247e-05    2.022e-05   -3.220e-05   -1.247e-05  
    0.71000     1.266e-05    1.989e-05   -3.235e-05   -1.266e-05  
    0.72000     1.285e-05    1.957e-05   -3.248e-05   -1.285e-05  
    0.73000     1.304e-05    1.924e-05   -3.256e-05   -1.304e-05  
    0.74000     1.323e-05    1.892e-05   -3.262e-05   -1.323e-05  
    0.75000     1.341e-05    1.859e-05   -3.265e-05   -1.341e-05  
    0.76000     1.359e-05    1.826e-05   -3.264e-05   -1.359e-05  
    0.77000     1.377e-05    1.794e-05   -3.262e-05   -1.377e-05  
    0.78000     1.394e-05    1.761e-05   -3.256e-05   -1.394e-05  
    0.79000     1.411e-05    1.729e-05   -3.249e-05   -1.411e-05  
    0.80000     1.428e-05    1.697e-05   -3.239e-05   -1.428e-05  
    0.81000     1.444e-05    1.664e-05   -3.227e-05   -1.444e-05  
    0.82000     1.460e-05    1.632e-05   -3.213e-05   -1.460e-05  
    0.83000     1.476e-05    1.601e-05   -3.197e-05   -1.476e-05  
    0.84000     1.491e-05    1.569e-05   -3.179e-05   -1.491e-05  
    0.85000     1.506e-05    1.538e-05   -3.160e-05   -1.506e-05  
    0.86000     1.521e-05    1.507e-05   -3.139e-05   -1.521e-05  
    0.87000     1.535e-05    1.476e-05   -3.117e-05   -1.535e-05  
    0.88000     1.549e-05    1.445e-05   -3.094e-05   -1.549e-05  
    0.89000     1.563e-05    1.414e-05   -3.069e-05   -1.563e-05  
    0.90000     1.577e-05    1.384e-05   -3.044e-05   -1.577e-05  
    0.91000     1.590e-05    1.354e-05   -3.017e-05   -1.590e-05  
    0.92000     1.603e-05    1.325e-05   -2.989e-05   -1.603e-05  
    0.93000     1.616e-05    1.295e-05   -2.960e-05   -1.616e-05  
    0.94000     1.628e-05    1.266e-05   -2.931e-05   -1.628e-05  
    0.95000     1.640e-05    1.238e-05   -2.901e-05   -1.640e-05  
    0.96000     1.652e-05    1.209e-05   -2.870e-05   -1.652e-05  
    0.97000     1.664e-05    1.181e-05   -2.838e-05   -1.664e-05  
    0.98000     1.675e-05    1.154e-05   -2.806e-05   -1.675e-05  
    0.99000     1.686e-05    1.126e-05   -2.773e-05   -1.686e-05  
    1.00000     1.696e-05    1.099e-05   -2.740e-05   -1.696e-05  
    1.01000     1.707e-05    1.072e-05   -2.707e-05   -1.707e-05  
    1.02000     1.717e-05    1.046e-05   -2.673e-05   -1.717e-05  
    1.03000     1.727e-05    1.020e-05   -2.639e-05   -1.727e-05  
    1.04000     1.737e-05    9.943e-06   -2.604e-05   -1.737e-05  
    1.05000     1.746e-05    9.689e-06   -2.570e-05   -1.746e-05  
    1.06000     1.755e-05    9.439e-06   -2.535e-05   -1.755e-05  
    1.07000     1.764e-05    9.193e-06   -2.500e-05   -1.764e-05  
    1.08000     1.773e-05    8.949e-06   -2.465e-05   -1.773e-05  
    1.09000     1.782e-05    8.710e-06   -2.430e-05   -1.782e-05  
    1.10000     1.790e-05    8.474e-06   -2.395e-05   -1.790e-05  
    1.11000     1.798e-05    8.242e-06   -2.360e-05   -1.798e-05  
    1.12000     1.806e-05    8.013e-06   -2.325e-05   -1.806e-05  
    1.13000     1.813e-05    7.787e-06   -2.290e-05   -1.813e-05  
    1.14000     1.821e-05    7.565e-06   -2.255e-05   -1.821e-05  
    1.15000     1.828e-05    7.347e-06   -2.220e-05   -1.828e-05  
    1.16000     1.835e-05    7.132e-06   -2.185e-05   -1.835e-05  
    1.17000     1.841e-05    6.920e-06   -2.150e-05   -1.841e-05  
    1.18000     1.848e-05    6.712e-06   -2.116e-05   -1.848e-05  
    1.19000     1.854e-05    6.507e-06   -2.082e-05   -1.854e-05  
    1.20000     1.860e-05    6.306e-06   -2.048e-05   -1.860e-05  
    1.21000     1.866e-05    6.108e-06   -2.014e-05   -1.866e-05  
    1.22000     1.872e-05    5.913e-06   -1.980e-05   -1.872e-05  
    1.23000     1.877e-05    5.721e-06   -1.947e-05   -1.877e-05  
    1.24000     1.883e-05    5.533e-06   -1.914e-05   -1.883e-05  
    1.25000     1.888e-05    5.348e-06   -1.881e-05   -1.888e-05  
    1.26000     1.893e-05    5.167e-06   -1.849e-05   -1.893e-05  
    1.27000     1.898e-05    4.988e-06   -1.817e-05   -1.898e-05  
    1.28000     1.902e-05    4.813e-06   -1.785e-05   -1.902e-05  
    1.29000     1.907e-05    4.641e-06   -1.753e-05   -1.907e-05  
    1.30000     1.911e-05    4.472e-06   -1.722e-05   -1.911e-05  
y
-----------------------------------------------
 ******  
 *sample netlist for bsim6

  ******  dc transfer curves tnom=  25.000 temp=  25.000 *****

   *** source        0:vb =   -0.2000        ***

x

        volt    param        param        param        current    
                    ids          gm           gm2          vd     
   -1.30000     1.342e-08   -1.470e-05   -3.440e-06   -1.342e-08  
   -1.29000     1.308e-08   -1.910e-03   -1.917e-03   -1.308e-08  
   -1.28000     1.275e-08   -3.398e-08     -0.1895    -1.275e-08  
   -1.27000     1.243e-08   -3.326e-08      0.1910    -1.243e-08  
   -1.26000     1.211e-08   -3.256e-08    7.162e-08   -1.211e-08  
   -1.25000     1.180e-08   -3.187e-08    7.006e-08   -1.180e-08  
   -1.24000     1.149e-08   -3.119e-08    6.921e-08   -1.149e-08  
   -1.23000     1.119e-08   -3.052e-08    6.807e-08   -1.119e-08  
   -1.22000     1.090e-08   -2.986e-08    6.679e-08   -1.090e-08  
   -1.21000     1.061e-08   -2.922e-08    6.565e-08   -1.061e-08  
   -1.20000     1.033e-08   -2.858e-08    6.459e-08   -1.033e-08  
   -1.19000     1.006e-08   -2.796e-08    6.381e-08   -1.006e-08  
   -1.18000     9.793e-09   -2.734e-08    6.239e-08   -9.793e-09  
   -1.17000     9.532e-09   -2.674e-08    6.118e-08   -9.532e-09  
   -1.16000     9.276e-09   -2.614e-08    6.047e-08   -9.276e-09  
   -1.15000     9.026e-09   -2.556e-08    5.947e-08   -9.026e-09  
   -1.14000     8.782e-09   -2.499e-08    5.812e-08   -8.782e-09  
   -1.13000     8.543e-09   -2.443e-08    5.734e-08   -8.543e-09  
   -1.12000     8.310e-09   -2.387e-08    5.627e-08   -8.310e-09  
   -1.11000     8.082e-09   -2.333e-08    5.521e-08   -8.082e-09  
   -1.10000     7.859e-09   -2.280e-08    5.443e-08   -7.859e-09  
   -1.09000     7.641e-09   -2.228e-08    5.322e-08   -7.641e-09  
   -1.08000     7.429e-09   -2.176e-08    5.230e-08   -7.429e-09  
   -1.07000     7.221e-09   -2.126e-08    5.144e-08   -7.221e-09  
   -1.06000     7.019e-09   -2.076e-08    5.059e-08   -7.019e-09  
   -1.05000     6.821e-09   -2.027e-08    4.938e-08   -6.821e-09  
   -1.04000     6.627e-09   -1.980e-08    4.889e-08   -6.627e-09  
   -1.03000     6.439e-09   -1.933e-08    4.768e-08   -6.439e-09  
   -1.02000     6.255e-09   -1.887e-08    4.675e-08   -6.255e-09  
   -1.01000     6.075e-09   -1.842e-08    4.611e-08   -6.075e-09  
   -1.00000     5.899e-09   -1.797e-08    4.512e-08   -5.899e-09  
   -0.99000     5.728e-09   -1.754e-08    4.412e-08   -5.728e-09  
   -0.98000     5.561e-09   -1.711e-08    4.356e-08   -5.561e-09  
   -0.97000     5.398e-09   -1.670e-08    4.256e-08   -5.398e-09  
   -0.96000     5.240e-09   -1.629e-08    4.178e-08   -5.240e-09  
   -0.95000     5.085e-09   -1.588e-08    4.093e-08   -5.085e-09  
   -0.94000     4.934e-09   -1.549e-08    4.022e-08   -4.934e-09  
   -0.93000     4.786e-09   -1.510e-08    3.944e-08   -4.786e-09  
   -0.92000     4.643e-09   -1.473e-08    3.851e-08   -4.643e-09  
   -0.91000     4.503e-09   -1.435e-08    3.794e-08   -4.503e-09  
   -0.90000     4.367e-09   -1.399e-08    3.709e-08   -4.367e-09  
   -0.89000     4.234e-09   -1.364e-08    3.631e-08   -4.234e-09  
   -0.88000     4.104e-09   -1.329e-08    3.546e-08   -4.104e-09  
   -0.87000     3.978e-09   -1.295e-08    3.510e-08   -3.978e-09  
   -0.86000     3.855e-09   -1.261e-08    3.403e-08   -3.855e-09  
   -0.85000     3.736e-09   -1.228e-08    3.361e-08   -3.736e-09  
   -0.84000     3.619e-09   -1.196e-08    3.261e-08   -3.619e-09  
   -0.83000     3.506e-09   -1.165e-08    3.226e-08   -3.506e-09  
   -0.82000     3.395e-09   -1.134e-08    3.133e-08   -3.395e-09  
   -0.81000     3.288e-09   -1.104e-08    3.070e-08   -3.288e-09  
   -0.80000     3.183e-09   -1.074e-08    3.020e-08   -3.183e-09  
   -0.79000     3.082e-09   -1.046e-08    2.949e-08   -3.082e-09  
   -0.78000     2.983e-09   -1.017e-08    2.878e-08   -2.983e-09  
   -0.77000     2.886e-09   -9.897e-09    2.821e-08   -2.886e-09  
   -0.76000     2.793e-09   -9.627e-09    2.764e-08   -2.793e-09  
   -0.75000     2.702e-09   -9.364e-09    2.700e-08   -2.702e-09  
   -0.74000     2.613e-09   -9.105e-09    2.636e-08   -2.613e-09  
   -0.73000     2.527e-09   -8.854e-09    2.586e-08   -2.527e-09  
   -0.72000     2.444e-09   -8.605e-09    2.508e-08   -2.444e-09  
   -0.71000     2.362e-09   -8.365e-09    2.494e-08   -2.362e-09  
   -0.70000     2.283e-09   -8.129e-09    2.395e-08   -2.283e-09  
   -0.69000     2.207e-09   -7.898e-09    2.366e-08   -2.207e-09  
   -0.68000     2.132e-09   -7.672e-09    2.302e-08   -2.132e-09  
   -0.67000     2.060e-09   -7.454e-09    2.260e-08   -2.060e-09  
   -0.66000     1.989e-09   -7.238e-09    2.181e-08   -1.989e-09  
   -0.65000     1.921e-09   -7.029e-09    2.160e-08   -1.921e-09  
   -0.64000     1.855e-09   -6.824e-09    2.096e-08   -1.855e-09  
   -0.63000     1.791e-09   -6.626e-09    2.046e-08   -1.791e-09  
   -0.62000     1.728e-09   -6.428e-09    1.982e-08   -1.728e-09  
   -0.61000     1.668e-09   -6.239e-09    1.982e-08   -1.668e-09  
   -0.60000     1.609e-09   -6.052e-09    1.883e-08   -1.609e-09  
   -0.59000     1.552e-09   -5.871e-09    1.876e-08   -1.552e-09  
   -0.58000     1.497e-09   -5.694e-09    1.805e-08   -1.497e-09  
   -0.57000     1.443e-09   -5.522e-09    1.769e-08   -1.443e-09  
   -0.56000     1.391e-09   -5.353e-09    1.720e-08   -1.391e-09  
   -0.55000     1.341e-09   -5.189e-09    1.698e-08   -1.341e-09  
   -0.54000     1.292e-09   -5.029e-09    1.634e-08   -1.292e-09  
   -0.53000     1.245e-09   -4.874e-09    1.599e-08   -1.245e-09  
   -0.52000     1.199e-09   -4.719e-09    1.549e-08   -1.199e-09  
   -0.51000     1.155e-09   -4.574e-09    1.549e-08   -1.155e-09  
   -0.50000     1.112e-09   -4.429e-09    1.457e-08   -1.112e-09  
   -0.49000     1.071e-09   -4.288e-09    1.450e-08   -1.071e-09  
   -0.48000     1.031e-09   -4.151e-09    1.407e-08   -1.031e-09  
   -0.47000     9.917e-10   -4.018e-09    1.371e-08   -9.917e-10  
   -0.46000     9.540e-10   -3.888e-09    1.329e-08   -9.540e-10  
   -0.45000     9.177e-10   -3.762e-09    1.300e-08   -9.177e-10  
   -0.44000     8.825e-10   -3.639e-09    1.258e-08   -8.825e-10  
   -0.43000     8.484e-10   -3.519e-09    1.236e-08   -8.484e-10  
   -0.42000     8.155e-10   -3.401e-09    1.194e-08   -8.155e-10  
   -0.41000     7.837e-10   -3.291e-09    1.180e-08   -7.837e-10  
   -0.40000     7.530e-10   -3.180e-09    1.108e-08   -7.530e-10  
   -0.39000     7.233e-10   -3.072e-09    1.101e-08   -7.233e-10  
   -0.38000     6.947e-10   -2.967e-09    1.080e-08   -6.947e-10  
   -0.37000     6.670e-10   -2.868e-09    1.052e-08   -6.670e-10  
   -0.36000     6.403e-10   -2.766e-09    9.877e-09   -6.403e-10  
   -0.35000     6.145e-10   -2.674e-09    1.023e-08   -6.145e-10  
   -0.34000     5.896e-10   -2.580e-09    9.237e-09   -5.896e-10  
   -0.33000     5.656e-10   -2.488e-09    9.379e-09   -5.656e-10  
   -0.32000     5.424e-10   -2.401e-09    9.237e-09   -5.424e-10  
   -0.31000     5.201e-10   -2.315e-09    8.669e-09   -5.201e-10  
   -0.30000     4.986e-10   -2.230e-09    8.598e-09   -4.986e-10  
   -0.29000     4.779e-10   -2.149e-09    8.527e-09   -4.779e-10  
   -0.28000     4.580e-10   -2.069e-09    8.029e-09   -4.580e-10  
   -0.27000     4.389e-10   -1.990e-09    8.029e-09   -4.389e-10  
   -0.26000     4.206e-10   -1.912e-09    7.887e-09   -4.206e-10  
   -0.25000     4.030e-10   -1.834e-09    7.816e-09   -4.030e-10  
   -0.24000     3.862e-10   -1.757e-09    7.816e-09   -3.862e-10  
   -0.23000     3.703e-10   -1.677e-09    7.674e-09   -3.703e-10  
   -0.22000     3.552e-10   -1.597e-09    8.029e-09   -3.552e-10  
   -0.21000     3.410e-10   -1.511e-09    8.029e-09   -3.410e-10  
   -0.20000     3.278e-10   -1.418e-09    8.598e-09   -3.278e-10  
   -0.19000     3.158e-10   -1.317e-09    9.237e-09   -3.158e-10  
   -0.18000     3.052e-10   -1.199e-09    1.009e-08   -3.052e-10  
   -0.17000     2.962e-10   -1.064e-09    1.180e-08   -2.962e-10  
   -0.16000     2.893e-10   -8.988e-10    1.357e-08   -2.893e-10  
   -0.15000     2.849e-10   -6.921e-10    1.648e-08   -2.849e-10  
   -0.14000     2.839e-10   -4.356e-10    2.068e-08   -2.839e-10  
   -0.13000     2.873e-10   -9.877e-11    2.565e-08   -2.873e-10  
   -0.12000     2.965e-10    3.389e-10    3.368e-08   -2.965e-10  
   -0.11000     3.136e-10    9.223e-10    4.377e-08   -3.136e-10  
   -0.10000     3.411e-10    1.703e-09    5.834e-08   -3.411e-10  
 -9.0000e-02    3.830e-10    2.757e-09    7.809e-08   -3.830e-10  
 -8.0000e-02    4.441e-10    4.182e-09    1.054e-07   -4.441e-10  
 -7.0000e-02    5.317e-10    6.119e-09    1.425e-07   -5.317e-10  
 -6.0000e-02    6.554e-10    8.760e-09    1.938e-07   -6.554e-10  
 -5.0000e-02    8.282e-10    1.236e-08    2.641e-07   -8.282e-10  
 -4.0000e-02    1.068e-09    1.729e-08    3.601e-07   -1.068e-09  
 -3.0000e-02    1.401e-09    2.402e-08    4.924e-07   -1.401e-09  
 -2.0000e-02    1.859e-09    3.324e-08    6.735e-07   -1.859e-09  
 -1.0000e-02    2.491e-09    4.585e-08    9.219e-07   -2.491e-09  
    0.          3.358e-09    6.312e-08    1.261e-06   -3.358e-09  
  1.0000e-02    4.548e-09    8.674e-08    1.727e-06   -4.548e-09  
  2.0000e-02    6.180e-09    1.190e-07    2.362e-06   -6.180e-09  
  3.0000e-02    8.412e-09    1.631e-07    3.229e-06   -8.412e-09  
  4.0000e-02    1.146e-08    2.232e-07    4.410e-06   -1.146e-08  
  5.0000e-02    1.562e-08    3.050e-07    6.011e-06   -1.562e-08  
  6.0000e-02    2.127e-08    4.158e-07    8.174e-06   -2.127e-08  
  7.0000e-02    2.893e-08    5.652e-07    1.108e-05   -2.893e-08  
  8.0000e-02    3.925e-08    7.656e-07    1.494e-05   -3.925e-08  
  9.0000e-02    5.308e-08    1.032e-06    2.004e-05   -5.308e-08  
    0.10000     7.146e-08    1.383e-06    2.665e-05   -7.146e-08  
    0.11000     9.566e-08    1.838e-06    3.507e-05   -9.566e-08  
    0.12000     1.271e-07    2.420e-06    4.554e-05   -1.271e-07  
    0.13000     1.675e-07    3.148e-06    5.816e-05   -1.675e-07  
    0.14000     2.185e-07    4.038e-06    7.281e-05   -2.185e-07  
    0.15000     2.818e-07    5.099e-06    8.903e-05   -2.818e-07  
    0.16000     3.588e-07    6.325e-06    1.060e-04   -3.588e-07  
    0.17000     4.507e-07    7.701e-06    1.226e-04   -4.507e-07  
    0.18000     5.584e-07    9.196e-06    1.376e-04   -5.584e-07  
    0.19000     6.822e-07    1.077e-05    1.495e-04   -6.822e-07  
    0.20000     8.220e-07    1.238e-05    1.575e-04   -8.220e-07  
    0.21000     9.773e-07    1.398e-05    1.609e-04   -9.773e-07  
    0.22000     1.147e-06    1.553e-05    1.599e-04   -1.147e-06  
    0.23000     1.331e-06    1.700e-05    1.549e-04   -1.331e-06  
    0.24000     1.527e-06    1.836e-05    1.468e-04   -1.527e-06  
    0.25000     1.734e-06    1.961e-05    1.364e-04   -1.734e-06  
    0.26000     1.952e-06    2.074e-05    1.248e-04   -1.952e-06  
    0.27000     2.178e-06    2.174e-05    1.126e-04   -2.178e-06  
    0.28000     2.412e-06    2.263e-05    1.004e-04   -2.412e-06  
    0.29000     2.653e-06    2.340e-05    8.861e-05   -2.653e-06  
    0.30000     2.899e-06    2.407e-05    7.752e-05   -2.899e-06  
    0.31000     3.151e-06    2.465e-05    6.725e-05   -3.151e-06  
    0.32000     3.406e-06    2.514e-05    5.786e-05   -3.406e-06  
    0.33000     3.665e-06    2.556e-05    4.934e-05   -3.665e-06  
    0.34000     3.927e-06    2.591e-05    4.164e-05   -3.927e-06  
    0.35000     4.191e-06    2.619e-05    3.468e-05   -4.191e-06  
    0.36000     4.457e-06    2.642e-05    2.840e-05   -4.457e-06  
    0.37000     4.725e-06    2.660e-05    2.273e-05   -4.725e-06  
    0.38000     4.993e-06    2.672e-05    1.760e-05   -4.993e-06  
    0.39000     5.261e-06    2.681e-05    1.296e-05   -5.261e-06  
    0.40000     5.530e-06    2.686e-05    8.744e-06   -5.530e-06  
    0.41000     5.799e-06    2.688e-05    4.917e-06   -5.799e-06  
    0.42000     6.067e-06    2.686e-05    1.434e-06   -6.067e-06  
    0.43000     6.334e-06    2.681e-05   -1.742e-06   -6.334e-06  
    0.44000     6.601e-06    2.674e-05   -4.641e-06   -6.601e-06  
    0.45000     6.866e-06    2.664e-05   -7.293e-06   -6.866e-06  
    0.46000     7.130e-06    2.652e-05   -9.719e-06   -7.130e-06  
    0.47000     7.392e-06    2.638e-05   -1.194e-05   -7.392e-06  
    0.48000     7.652e-06    2.622e-05   -1.398e-05   -7.652e-06  
    0.49000     7.911e-06    2.605e-05   -1.585e-05   -7.911e-06  
    0.50000     8.168e-06    2.586e-05   -1.757e-05   -8.168e-06  
    0.51000     8.422e-06    2.565e-05   -1.915e-05   -8.422e-06  
    0.52000     8.674e-06    2.543e-05   -2.060e-05   -8.674e-06  
    0.53000     8.923e-06    2.520e-05   -2.193e-05   -8.923e-06  
    0.54000     9.170e-06    2.496e-05   -2.314e-05   -9.170e-06  
    0.55000     9.415e-06    2.470e-05   -2.426e-05   -9.415e-06  
    0.56000     9.657e-06    2.444e-05   -2.528e-05   -9.657e-06  
    0.57000     9.896e-06    2.417e-05   -2.622e-05   -9.896e-06  
    0.58000     1.013e-05    2.389e-05   -2.707e-05   -1.013e-05  
    0.59000     1.036e-05    2.361e-05   -2.784e-05   -1.036e-05  
    0.60000     1.059e-05    2.332e-05   -2.855e-05   -1.059e-05  
    0.61000     1.082e-05    2.302e-05   -2.918e-05   -1.082e-05  
    0.62000     1.105e-05    2.272e-05   -2.975e-05   -1.105e-05  
    0.63000     1.127e-05    2.241e-05   -3.027e-05   -1.127e-05  
    0.64000     1.149e-05    2.210e-05   -3.072e-05   -1.149e-05  
    0.65000     1.170e-05    2.178e-05   -3.113e-05   -1.170e-05  
    0.66000     1.191e-05    2.146e-05   -3.148e-05   -1.191e-05  
    0.67000     1.212e-05    2.114e-05   -3.179e-05   -1.212e-05  
    0.68000     1.232e-05    2.082e-05   -3.206e-05   -1.232e-05  
    0.69000     1.253e-05    2.050e-05   -3.228e-05   -1.253e-05  
    0.70000     1.272e-05    2.017e-05   -3.246e-05   -1.272e-05  
    0.71000     1.292e-05    1.984e-05   -3.261e-05   -1.292e-05  
    0.72000     1.311e-05    1.952e-05   -3.272e-05   -1.311e-05  
    0.73000     1.330e-05    1.919e-05   -3.280e-05   -1.330e-05  
    0.74000     1.349e-05    1.886e-05   -3.285e-05   -1.349e-05  
    0.75000     1.367e-05    1.853e-05   -3.286e-05   -1.367e-05  
    0.76000     1.385e-05    1.820e-05   -3.285e-05   -1.385e-05  
    0.77000     1.402e-05    1.787e-05   -3.282e-05   -1.402e-05  
    0.78000     1.419e-05    1.755e-05   -3.276e-05   -1.419e-05  
    0.79000     1.436e-05    1.722e-05   -3.267e-05   -1.436e-05  
    0.80000     1.453e-05    1.690e-05   -3.257e-05   -1.453e-05  
    0.81000     1.469e-05    1.657e-05   -3.244e-05   -1.469e-05  
    0.82000     1.485e-05    1.625e-05   -3.229e-05   -1.485e-05  
    0.83000     1.501e-05    1.593e-05   -3.213e-05   -1.501e-05  
    0.84000     1.516e-05    1.562e-05   -3.195e-05   -1.516e-05  
    0.85000     1.531e-05    1.530e-05   -3.175e-05   -1.531e-05  
    0.86000     1.546e-05    1.499e-05   -3.154e-05   -1.546e-05  
    0.87000     1.560e-05    1.468e-05   -3.131e-05   -1.560e-05  
    0.88000     1.574e-05    1.437e-05   -3.107e-05   -1.574e-05  
    0.89000     1.588e-05    1.406e-05   -3.082e-05   -1.588e-05  
    0.90000     1.601e-05    1.376e-05   -3.056e-05   -1.601e-05  
    0.91000     1.614e-05    1.346e-05   -3.029e-05   -1.614e-05  
    0.92000     1.627e-05    1.316e-05   -3.001e-05   -1.627e-05  
    0.93000     1.640e-05    1.287e-05   -2.972e-05   -1.640e-05  
    0.94000     1.652e-05    1.258e-05   -2.942e-05   -1.652e-05  
    0.95000     1.664e-05    1.229e-05   -2.911e-05   -1.664e-05  
    0.96000     1.676e-05    1.200e-05   -2.880e-05   -1.676e-05  
    0.97000     1.687e-05    1.172e-05   -2.848e-05   -1.687e-05  
    0.98000     1.699e-05    1.145e-05   -2.815e-05   -1.699e-05  
    0.99000     1.709e-05    1.117e-05   -2.782e-05   -1.709e-05  
    1.00000     1.720e-05    1.090e-05   -2.749e-05   -1.720e-05  
    1.01000     1.730e-05    1.063e-05   -2.715e-05   -1.730e-05  
    1.02000     1.741e-05    1.037e-05   -2.681e-05   -1.741e-05  
    1.03000     1.750e-05    1.011e-05   -2.646e-05   -1.750e-05  
    1.04000     1.760e-05    9.847e-06   -2.612e-05   -1.760e-05  
    1.05000     1.769e-05    9.593e-06   -2.577e-05   -1.769e-05  
    1.06000     1.778e-05    9.343e-06   -2.541e-05   -1.778e-05  
    1.07000     1.787e-05    9.095e-06   -2.506e-05   -1.787e-05  
    1.08000     1.796e-05    8.852e-06   -2.471e-05   -1.796e-05  
    1.09000     1.804e-05    8.612e-06   -2.436e-05   -1.804e-05  
    1.10000     1.812e-05    8.375e-06   -2.400e-05   -1.812e-05  
    1.11000     1.820e-05    8.143e-06   -2.365e-05   -1.820e-05  
    1.12000     1.828e-05    7.913e-06   -2.329e-05   -1.828e-05  
    1.13000     1.835e-05    7.687e-06   -2.294e-05   -1.835e-05  
    1.14000     1.843e-05    7.465e-06   -2.259e-05   -1.843e-05  
    1.15000     1.850e-05    7.246e-06   -2.224e-05   -1.850e-05  
    1.16000     1.857e-05    7.031e-06   -2.189e-05   -1.857e-05  
    1.17000     1.863e-05    6.819e-06   -2.154e-05   -1.863e-05  
    1.18000     1.870e-05    6.610e-06   -2.119e-05   -1.870e-05  
    1.19000     1.876e-05    6.405e-06   -2.084e-05   -1.876e-05  
    1.20000     1.882e-05    6.204e-06   -2.050e-05   -1.882e-05  
    1.21000     1.888e-05    6.005e-06   -2.016e-05   -1.888e-05  
    1.22000     1.893e-05    5.811e-06   -1.982e-05   -1.893e-05  
    1.23000     1.899e-05    5.619e-06   -1.949e-05   -1.899e-05  
    1.24000     1.904e-05    5.431e-06   -1.916e-05   -1.904e-05  
    1.25000     1.909e-05    5.246e-06   -1.882e-05   -1.909e-05  
    1.26000     1.914e-05    5.064e-06   -1.850e-05   -1.914e-05  
    1.27000     1.919e-05    4.886e-06   -1.817e-05   -1.919e-05  
    1.28000     1.923e-05    4.710e-06   -1.785e-05   -1.923e-05  
    1.29000     1.927e-05    4.538e-06   -1.754e-05   -1.927e-05  
    1.30000     1.932e-05    4.369e-06   -1.722e-05   -1.932e-05  
y
-----------------------------------------------
 ******  
 *sample netlist for bsim6

  ******  dc transfer curves tnom=  25.000 temp=  25.000 *****

   *** source        0:vb =   -0.1000        ***

x

        volt    param        param        param        current    
                    ids          gm           gm2          vd     
   -1.30000     1.342e-08   -1.486e-05   -3.361e-06   -1.342e-08  
   -1.29000     1.308e-08   -1.930e-03   -1.923e-03   -1.308e-08  
   -1.28000     1.275e-08   -3.397e-08     -0.1915    -1.275e-08  
   -1.27000     1.242e-08   -3.325e-08      0.1930    -1.242e-08  
   -1.26000     1.210e-08   -3.255e-08    7.134e-08   -1.210e-08  
   -1.25000     1.179e-08   -3.186e-08    7.049e-08   -1.179e-08  
   -1.24000     1.149e-08   -3.118e-08    6.892e-08   -1.149e-08  
   -1.23000     1.119e-08   -3.051e-08    6.800e-08   -1.119e-08  
   -1.22000     1.090e-08   -2.985e-08    6.679e-08   -1.090e-08  
   -1.21000     1.061e-08   -2.921e-08    6.587e-08   -1.061e-08  
   -1.20000     1.033e-08   -2.857e-08    6.445e-08   -1.033e-08  
   -1.19000     1.006e-08   -2.795e-08    6.359e-08   -1.006e-08  
   -1.18000     9.790e-09   -2.734e-08    6.246e-08   -9.790e-09  
   -1.17000     9.529e-09   -2.673e-08    6.132e-08   -9.529e-09  
   -1.16000     9.273e-09   -2.614e-08    6.040e-08   -9.273e-09  
   -1.15000     9.024e-09   -2.556e-08    5.940e-08   -9.024e-09  
   -1.14000     8.779e-09   -2.498e-08    5.819e-08   -8.779e-09  
   -1.13000     8.541e-09   -2.442e-08    5.734e-08   -8.541e-09  
   -1.12000     8.307e-09   -2.387e-08    5.606e-08   -8.307e-09  
   -1.11000     8.080e-09   -2.333e-08    5.535e-08   -8.080e-09  
   -1.10000     7.857e-09   -2.279e-08    5.421e-08   -7.857e-09  
   -1.09000     7.639e-09   -2.227e-08    5.350e-08   -7.639e-09  
   -1.08000     7.427e-09   -2.176e-08    5.215e-08   -7.427e-09  
   -1.07000     7.219e-09   -2.125e-08    5.137e-08   -7.219e-09  
   -1.06000     7.017e-09   -2.075e-08    5.059e-08   -7.017e-09  
   -1.05000     6.819e-09   -2.027e-08    4.952e-08   -6.819e-09  
   -1.04000     6.625e-09   -1.979e-08    4.867e-08   -6.625e-09  
   -1.03000     6.437e-09   -1.932e-08    4.768e-08   -6.437e-09  
   -1.02000     6.253e-09   -1.886e-08    4.682e-08   -6.253e-09  
   -1.01000     6.073e-09   -1.841e-08    4.604e-08   -6.073e-09  
   -1.00000     5.898e-09   -1.797e-08    4.512e-08   -5.898e-09  
   -0.99000     5.727e-09   -1.753e-08    4.427e-08   -5.727e-09  
   -0.98000     5.560e-09   -1.711e-08    4.341e-08   -5.560e-09  
   -0.97000     5.397e-09   -1.669e-08    4.242e-08   -5.397e-09  
   -0.96000     5.238e-09   -1.628e-08    4.199e-08   -5.238e-09  
   -0.95000     5.083e-09   -1.588e-08    4.093e-08   -5.083e-09  
   -0.94000     4.932e-09   -1.549e-08    4.000e-08   -4.932e-09  
   -0.93000     4.785e-09   -1.510e-08    3.951e-08   -4.785e-09  
   -0.92000     4.642e-09   -1.472e-08    3.858e-08   -4.642e-09  
   -0.91000     4.502e-09   -1.435e-08    3.773e-08   -4.502e-09  
   -0.90000     4.365e-09   -1.399e-08    3.730e-08   -4.365e-09  
   -0.89000     4.232e-09   -1.363e-08    3.610e-08   -4.232e-09  
   -0.88000     4.103e-09   -1.328e-08    3.567e-08   -4.103e-09  
   -0.87000     3.977e-09   -1.294e-08    3.489e-08   -3.977e-09  
   -0.86000     3.854e-09   -1.261e-08    3.425e-08   -3.854e-09  
   -0.85000     3.735e-09   -1.228e-08    3.332e-08   -3.735e-09  
   -0.84000     3.618e-09   -1.196e-08    3.283e-08   -3.618e-09  
   -0.83000     3.505e-09   -1.165e-08    3.212e-08   -3.505e-09  
   -0.82000     3.394e-09   -1.134e-08    3.126e-08   -3.394e-09  
   -0.81000     3.287e-09   -1.104e-08    3.098e-08   -3.287e-09  
   -0.80000     3.183e-09   -1.074e-08    2.991e-08   -3.183e-09  
   -0.79000     3.081e-09   -1.045e-08    2.956e-08   -3.081e-09  
   -0.78000     2.982e-09   -1.017e-08    2.885e-08   -2.982e-09  
   -0.77000     2.886e-09   -9.894e-09    2.814e-08   -2.886e-09  
   -0.76000     2.792e-09   -9.624e-09    2.764e-08   -2.792e-09  
   -0.75000     2.701e-09   -9.361e-09    2.700e-08   -2.701e-09  
   -0.74000     2.613e-09   -9.103e-09    2.636e-08   -2.613e-09  
   -0.73000     2.526e-09   -8.851e-09    2.579e-08   -2.526e-09  
   -0.72000     2.443e-09   -8.603e-09    2.522e-08   -2.443e-09  
   -0.71000     2.362e-09   -8.362e-09    2.473e-08   -2.362e-09  
   -0.70000     2.283e-09   -8.127e-09    2.409e-08   -2.283e-09  
   -0.69000     2.206e-09   -7.895e-09    2.352e-08   -2.206e-09  
   -0.68000     2.131e-09   -7.671e-09    2.323e-08   -2.131e-09  
   -0.67000     2.059e-09   -7.453e-09    2.238e-08   -2.059e-09  
   -0.66000     1.989e-09   -7.235e-09    2.181e-08   -1.989e-09  
   -0.65000     1.921e-09   -7.028e-09    2.174e-08   -1.921e-09  
   -0.64000     1.854e-09   -6.821e-09    2.075e-08   -1.854e-09  
   -0.63000     1.790e-09   -6.624e-09    2.068e-08   -1.790e-09  
   -0.62000     1.728e-09   -6.427e-09    1.975e-08   -1.728e-09  
   -0.61000     1.667e-09   -6.237e-09    1.968e-08   -1.667e-09  
   -0.60000     1.608e-09   -6.050e-09    1.897e-08   -1.608e-09  
   -0.59000     1.552e-09   -5.869e-09    1.869e-08   -1.552e-09  
   -0.58000     1.496e-09   -5.693e-09    1.812e-08   -1.496e-09  
   -0.57000     1.443e-09   -5.519e-09    1.762e-08   -1.443e-09  
   -0.56000     1.391e-09   -5.353e-09    1.734e-08   -1.391e-09  
   -0.55000     1.341e-09   -5.188e-09    1.670e-08   -1.341e-09  
   -0.54000     1.292e-09   -5.029e-09    1.648e-08   -1.292e-09  
   -0.53000     1.245e-09   -4.871e-09    1.592e-08   -1.245e-09  
   -0.52000     1.199e-09   -4.719e-09    1.577e-08   -1.199e-09  
   -0.51000     1.155e-09   -4.572e-09    1.513e-08   -1.155e-09  
   -0.50000     1.112e-09   -4.428e-09    1.478e-08   -1.112e-09  
   -0.49000     1.070e-09   -4.286e-09    1.435e-08   -1.070e-09  
   -0.48000     1.030e-09   -4.150e-09    1.421e-08   -1.030e-09  
   -0.47000     9.914e-10   -4.017e-09    1.357e-08   -9.914e-10  
   -0.46000     9.538e-10   -3.887e-09    1.329e-08   -9.538e-10  
   -0.45000     9.174e-10   -3.761e-09    1.307e-08   -9.174e-10  
   -0.44000     8.822e-10   -3.638e-09    1.258e-08   -8.822e-10  
   -0.43000     8.482e-10   -3.518e-09    1.229e-08   -8.482e-10  
   -0.42000     8.153e-10   -3.401e-09    1.201e-08   -8.153e-10  
   -0.41000     7.835e-10   -3.288e-09    1.165e-08   -7.835e-10  
   -0.40000     7.528e-10   -3.180e-09    1.130e-08   -7.528e-10  
   -0.39000     7.231e-10   -3.070e-09    1.087e-08   -7.231e-10  
   -0.38000     6.945e-10   -2.969e-09    1.094e-08   -6.945e-10  
   -0.37000     6.668e-10   -2.865e-09    1.016e-08   -6.668e-10  
   -0.36000     6.401e-10   -2.768e-09    1.037e-08   -6.401e-10  
   -0.35000     6.143e-10   -2.670e-09    9.734e-09   -6.143e-10  
   -0.34000     5.895e-10   -2.578e-09    9.805e-09   -5.895e-10  
   -0.33000     5.655e-10   -2.488e-09    9.166e-09   -5.655e-10  
   -0.32000     5.423e-10   -2.400e-09    9.024e-09   -5.423e-10  
   -0.31000     5.201e-10   -2.312e-09    8.811e-09   -5.201e-10  
   -0.30000     4.986e-10   -2.226e-09    8.740e-09   -4.986e-10  
   -0.29000     4.780e-10   -2.146e-09    8.598e-09   -4.780e-10  
   -0.28000     4.582e-10   -2.063e-09    8.029e-09   -4.582e-10  
   -0.27000     4.391e-10   -1.984e-09    8.242e-09   -4.391e-10  
   -0.26000     4.209e-10   -1.903e-09    7.958e-09   -4.209e-10  
   -0.25000     4.035e-10   -1.821e-09    8.100e-09   -4.035e-10  
   -0.24000     3.869e-10   -1.740e-09    8.171e-09   -3.869e-10  
   -0.23000     3.713e-10   -1.656e-09    8.100e-09   -3.713e-10  
   -0.22000     3.566e-10   -1.567e-09    8.384e-09   -3.566e-10  
   -0.21000     3.429e-10   -1.470e-09    8.953e-09   -3.429e-10  
   -0.20000     3.305e-10   -1.364e-09    9.663e-09   -3.305e-10  
   -0.19000     3.195e-10   -1.243e-09    1.066e-08   -3.195e-10  
   -0.18000     3.102e-10   -1.101e-09    1.201e-08   -3.102e-10  
   -0.17000     3.031e-10   -9.280e-10    1.428e-08   -3.031e-10  
   -0.16000     2.986e-10   -7.162e-10    1.727e-08   -2.986e-10  
   -0.15000     2.976e-10   -4.455e-10    2.117e-08   -2.976e-10  
   -0.14000     3.012e-10   -9.663e-11    2.707e-08   -3.012e-10  
   -0.13000     3.108e-10    3.574e-10    3.489e-08   -3.108e-10  
   -0.12000     3.285e-10    9.614e-10    4.540e-08   -3.285e-10  
   -0.11000     3.570e-10    1.767e-09    6.040e-08   -3.570e-10  
   -0.10000     4.002e-10    2.853e-09    8.058e-08   -4.002e-10  
 -9.0000e-02    4.633e-10    4.317e-09    1.086e-07   -4.633e-10  
 -8.0000e-02    5.533e-10    6.306e-09    1.464e-07   -5.533e-10  
 -7.0000e-02    6.802e-10    9.008e-09    1.989e-07   -6.802e-10  
 -6.0000e-02    8.573e-10    1.269e-08    2.701e-07   -8.573e-10  
 -5.0000e-02    1.103e-09    1.771e-08    3.682e-07   -1.103e-09  
 -4.0000e-02    1.442e-09    2.456e-08    5.019e-07   -1.442e-09  
 -3.0000e-02    1.909e-09    3.392e-08    6.851e-07   -1.909e-09  
 -2.0000e-02    2.551e-09    4.670e-08    9.360e-07   -2.551e-09  
 -1.0000e-02    3.431e-09    6.416e-08    1.278e-06   -3.431e-09  
    0.          4.636e-09    8.801e-08    1.746e-06   -4.636e-09  
  1.0000e-02    6.285e-09    1.205e-07    2.384e-06   -6.285e-09  
  2.0000e-02    8.537e-09    1.649e-07    3.253e-06   -8.537e-09  
  3.0000e-02    1.161e-08    2.252e-07    4.433e-06   -1.161e-08  
  4.0000e-02    1.579e-08    3.071e-07    6.032e-06   -1.579e-08  
  5.0000e-02    2.146e-08    4.178e-07    8.187e-06   -2.146e-08  
  6.0000e-02    2.912e-08    5.670e-07    1.108e-05   -2.912e-08  
  7.0000e-02    3.944e-08    7.666e-07    1.491e-05   -3.944e-08  
  8.0000e-02    5.324e-08    1.032e-06    1.996e-05   -5.324e-08  
  9.0000e-02    7.155e-08    1.380e-06    2.651e-05   -7.155e-08  
    0.10000     9.563e-08    1.832e-06    3.483e-05   -9.563e-08  
    0.11000     1.269e-07    2.408e-06    4.517e-05   -1.269e-07  
    0.12000     1.670e-07    3.129e-06    5.762e-05   -1.670e-07  
    0.13000     2.176e-07    4.010e-06    7.208e-05   -2.176e-07  
    0.14000     2.803e-07    5.058e-06    8.809e-05   -2.803e-07  
    0.15000     3.567e-07    6.272e-06    1.049e-04   -3.567e-07  
    0.16000     4.478e-07    7.635e-06    1.214e-04   -4.478e-07  
    0.17000     5.546e-07    9.117e-06    1.362e-04   -5.546e-07  
    0.18000     6.775e-07    1.068e-05    1.483e-04   -6.775e-07  
    0.19000     8.162e-07    1.228e-05    1.564e-04   -8.162e-07  
    0.20000     9.705e-07    1.388e-05    1.601e-04   -9.705e-07  
    0.21000     1.139e-06    1.543e-05    1.595e-04   -1.139e-06  
    0.22000     1.322e-06    1.690e-05    1.549e-04   -1.322e-06  
    0.23000     1.517e-06    1.827e-05    1.471e-04   -1.517e-06  
    0.24000     1.724e-06    1.953e-05    1.371e-04   -1.724e-06  
    0.25000     1.941e-06    2.067e-05    1.258e-04   -1.941e-06  
    0.26000     2.167e-06    2.168e-05    1.138e-04   -2.167e-06  
    0.27000     2.401e-06    2.259e-05    1.018e-04   -2.401e-06  
    0.28000     2.641e-06    2.338e-05    9.020e-05   -2.641e-06  
    0.29000     2.888e-06    2.407e-05    7.918e-05   -2.888e-06  
    0.30000     3.140e-06    2.466e-05    6.895e-05   -3.140e-06  
    0.31000     3.396e-06    2.517e-05    5.956e-05   -3.396e-06  
    0.32000     3.655e-06    2.561e-05    5.103e-05   -3.655e-06  
    0.33000     3.918e-06    2.597e-05    4.329e-05   -3.918e-06  
    0.34000     4.183e-06    2.627e-05    3.629e-05   -4.183e-06  
    0.35000     4.450e-06    2.651e-05    2.996e-05   -4.450e-06  
    0.36000     4.719e-06    2.670e-05    2.423e-05   -4.719e-06  
    0.37000     4.988e-06    2.684e-05    1.904e-05   -4.988e-06  
    0.38000     5.258e-06    2.694e-05    1.434e-05   -5.258e-06  
    0.39000     5.528e-06    2.701e-05    1.006e-05   -5.528e-06  
    0.40000     5.799e-06    2.703e-05    6.172e-06   -5.799e-06  
    0.41000     6.069e-06    2.703e-05    2.625e-06   -6.069e-06  
    0.42000     6.338e-06    2.699e-05   -6.148e-07   -6.338e-06  
    0.43000     6.606e-06    2.693e-05   -3.578e-06   -6.606e-06  
    0.44000     6.874e-06    2.684e-05   -6.291e-06   -6.874e-06  
    0.45000     7.140e-06    2.673e-05   -8.779e-06   -7.140e-06  
    0.46000     7.404e-06    2.660e-05   -1.106e-05   -7.404e-06  
    0.47000     7.667e-06    2.645e-05   -1.316e-05   -7.667e-06  
    0.48000     7.928e-06    2.628e-05   -1.509e-05   -7.928e-06  
    0.49000     8.187e-06    2.609e-05   -1.687e-05   -8.187e-06  
    0.50000     8.443e-06    2.589e-05   -1.850e-05   -8.443e-06  
    0.51000     8.698e-06    2.568e-05   -2.000e-05   -8.698e-06  
    0.52000     8.950e-06    2.545e-05   -2.138e-05   -8.950e-06  
    0.53000     9.200e-06    2.522e-05   -2.265e-05   -9.200e-06  
    0.54000     9.447e-06    2.497e-05   -2.381e-05   -9.447e-06  
    0.55000     9.691e-06    2.471e-05   -2.488e-05   -9.691e-06  
    0.56000     9.933e-06    2.444e-05   -2.586e-05   -9.933e-06  
    0.57000     1.017e-05    2.416e-05   -2.676e-05   -1.017e-05  
    0.58000     1.041e-05    2.388e-05   -2.757e-05   -1.041e-05  
    0.59000     1.064e-05    2.359e-05   -2.832e-05   -1.064e-05  
    0.60000     1.087e-05    2.330e-05   -2.899e-05   -1.087e-05  
    0.61000     1.110e-05    2.299e-05   -2.960e-05   -1.110e-05  
    0.62000     1.132e-05    2.269e-05   -3.015e-05   -1.132e-05  
    0.63000     1.154e-05    2.238e-05   -3.064e-05   -1.154e-05  
    0.64000     1.176e-05    2.206e-05   -3.108e-05   -1.176e-05  
    0.65000     1.197e-05    2.174e-05   -3.147e-05   -1.197e-05  
    0.66000     1.218e-05    2.142e-05   -3.181e-05   -1.218e-05  
    0.67000     1.239e-05    2.110e-05   -3.210e-05   -1.239e-05  
    0.68000     1.260e-05    2.077e-05   -3.235e-05   -1.260e-05  
    0.69000     1.280e-05    2.045e-05   -3.256e-05   -1.280e-05  
    0.70000     1.300e-05    2.012e-05   -3.273e-05   -1.300e-05  
    0.71000     1.319e-05    1.979e-05   -3.287e-05   -1.319e-05  
    0.72000     1.338e-05    1.946e-05   -3.297e-05   -1.338e-05  
    0.73000     1.357e-05    1.913e-05   -3.304e-05   -1.357e-05  
    0.74000     1.375e-05    1.880e-05   -3.307e-05   -1.375e-05  
    0.75000     1.394e-05    1.847e-05   -3.308e-05   -1.394e-05  
    0.76000     1.411e-05    1.814e-05   -3.306e-05   -1.411e-05  
    0.77000     1.429e-05    1.781e-05   -3.302e-05   -1.429e-05  
    0.78000     1.446e-05    1.748e-05   -3.295e-05   -1.446e-05  
    0.79000     1.463e-05    1.715e-05   -3.286e-05   -1.463e-05  
    0.80000     1.479e-05    1.682e-05   -3.275e-05   -1.479e-05  
    0.81000     1.495e-05    1.650e-05   -3.262e-05   -1.495e-05  
    0.82000     1.511e-05    1.618e-05   -3.246e-05   -1.511e-05  
    0.83000     1.527e-05    1.585e-05   -3.229e-05   -1.527e-05  
    0.84000     1.542e-05    1.554e-05   -3.211e-05   -1.542e-05  
    0.85000     1.557e-05    1.522e-05   -3.190e-05   -1.557e-05  
    0.86000     1.572e-05    1.490e-05   -3.169e-05   -1.572e-05  
    0.87000     1.586e-05    1.459e-05   -3.146e-05   -1.586e-05  
    0.88000     1.600e-05    1.428e-05   -3.121e-05   -1.600e-05  
    0.89000     1.614e-05    1.398e-05   -3.096e-05   -1.614e-05  
    0.90000     1.627e-05    1.367e-05   -3.069e-05   -1.627e-05  
    0.91000     1.640e-05    1.337e-05   -3.041e-05   -1.640e-05  
    0.92000     1.653e-05    1.307e-05   -3.013e-05   -1.653e-05  
    0.93000     1.665e-05    1.278e-05   -2.983e-05   -1.665e-05  
    0.94000     1.677e-05    1.248e-05   -2.953e-05   -1.677e-05  
    0.95000     1.689e-05    1.220e-05   -2.922e-05   -1.689e-05  
    0.96000     1.701e-05    1.191e-05   -2.890e-05   -1.701e-05  
    0.97000     1.712e-05    1.163e-05   -2.857e-05   -1.712e-05  
    0.98000     1.723e-05    1.135e-05   -2.825e-05   -1.723e-05  
    0.99000     1.734e-05    1.107e-05   -2.791e-05   -1.734e-05  
    1.00000     1.745e-05    1.080e-05   -2.757e-05   -1.745e-05  
    1.01000     1.755e-05    1.053e-05   -2.723e-05   -1.755e-05  
    1.02000     1.765e-05    1.027e-05   -2.689e-05   -1.765e-05  
    1.03000     1.775e-05    1.000e-05   -2.654e-05   -1.775e-05  
    1.04000     1.784e-05    9.746e-06   -2.619e-05   -1.784e-05  
    1.05000     1.793e-05    9.491e-06   -2.583e-05   -1.793e-05  
    1.06000     1.802e-05    9.240e-06   -2.548e-05   -1.802e-05  
    1.07000     1.811e-05    8.992e-06   -2.512e-05   -1.811e-05  
    1.08000     1.820e-05    8.748e-06   -2.477e-05   -1.820e-05  
    1.09000     1.828e-05    8.508e-06   -2.441e-05   -1.828e-05  
    1.10000     1.836e-05    8.271e-06   -2.405e-05   -1.836e-05  
    1.11000     1.844e-05    8.037e-06   -2.369e-05   -1.844e-05  
    1.12000     1.851e-05    7.807e-06   -2.334e-05   -1.851e-05  
    1.13000     1.859e-05    7.581e-06   -2.298e-05   -1.859e-05  
    1.14000     1.866e-05    7.358e-06   -2.263e-05   -1.866e-05  
    1.15000     1.873e-05    7.139e-06   -2.227e-05   -1.873e-05  
    1.16000     1.880e-05    6.924e-06   -2.192e-05   -1.880e-05  
    1.17000     1.886e-05    6.711e-06   -2.157e-05   -1.886e-05  
    1.18000     1.892e-05    6.503e-06   -2.122e-05   -1.892e-05  
    1.19000     1.898e-05    6.297e-06   -2.087e-05   -1.898e-05  
    1.20000     1.904e-05    6.096e-06   -2.053e-05   -1.904e-05  
    1.21000     1.910e-05    5.897e-06   -2.018e-05   -1.910e-05  
    1.22000     1.916e-05    5.702e-06   -1.984e-05   -1.916e-05  
    1.23000     1.921e-05    5.510e-06   -1.950e-05   -1.921e-05  
    1.24000     1.926e-05    5.322e-06   -1.917e-05   -1.926e-05  
    1.25000     1.931e-05    5.137e-06   -1.884e-05   -1.931e-05  
    1.26000     1.936e-05    4.955e-06   -1.851e-05   -1.936e-05  
    1.27000     1.940e-05    4.777e-06   -1.818e-05   -1.940e-05  
    1.28000     1.945e-05    4.601e-06   -1.786e-05   -1.945e-05  
    1.29000     1.949e-05    4.429e-06   -1.754e-05   -1.949e-05  
    1.30000     1.953e-05    4.260e-06   -1.722e-05   -1.953e-05  
y
-----------------------------------------------
 ******  
 *sample netlist for bsim6

  ******  dc transfer curves tnom=  25.000 temp=  25.000 *****

   *** source        0:vb =    0.            ***

x

        volt    param        param        param        current    
                    ids          gm           gm2          vd     
   -1.30000     1.330e-08   -1.502e-05   -3.277e-06   -1.330e-08  
   -1.29000     1.296e-08   -1.952e-03   -1.928e-03   -1.296e-08  
   -1.28000     1.263e-08   -3.365e-08     -0.1937    -1.263e-08  
   -1.27000     1.231e-08   -3.295e-08      0.1952    -1.231e-08  
   -1.26000     1.199e-08   -3.225e-08    7.063e-08   -1.199e-08  
   -1.25000     1.168e-08   -3.157e-08    6.970e-08   -1.168e-08  
   -1.24000     1.138e-08   -3.089e-08    6.835e-08   -1.138e-08  
   -1.23000     1.108e-08   -3.023e-08    6.750e-08   -1.108e-08  
   -1.22000     1.080e-08   -2.958e-08    6.594e-08   -1.080e-08  
   -1.21000     1.051e-08   -2.894e-08    6.530e-08   -1.051e-08  
   -1.20000     1.024e-08   -2.831e-08    6.409e-08   -1.024e-08  
   -1.19000     9.965e-09   -2.769e-08    6.288e-08   -9.965e-09  
   -1.18000     9.700e-09   -2.708e-08    6.182e-08   -9.700e-09  
   -1.17000     9.441e-09   -2.648e-08    6.089e-08   -9.441e-09  
   -1.16000     9.188e-09   -2.590e-08    5.976e-08   -9.188e-09  
   -1.15000     8.940e-09   -2.532e-08    5.869e-08   -8.940e-09  
   -1.14000     8.698e-09   -2.475e-08    5.770e-08   -8.698e-09  
   -1.13000     8.462e-09   -2.420e-08    5.691e-08   -8.462e-09  
   -1.12000     8.231e-09   -2.365e-08    5.556e-08   -8.231e-09  
   -1.11000     8.005e-09   -2.311e-08    5.485e-08   -8.005e-09  
   -1.10000     7.784e-09   -2.258e-08    5.379e-08   -7.784e-09  
   -1.09000     7.569e-09   -2.206e-08    5.272e-08   -7.569e-09  
   -1.08000     7.358e-09   -2.155e-08    5.187e-08   -7.358e-09  
   -1.07000     7.153e-09   -2.105e-08    5.095e-08   -7.153e-09  
   -1.06000     6.952e-09   -2.056e-08    5.002e-08   -6.952e-09  
   -1.05000     6.756e-09   -2.008e-08    4.903e-08   -6.756e-09  
   -1.04000     6.564e-09   -1.961e-08    4.832e-08   -6.564e-09  
   -1.03000     6.377e-09   -1.914e-08    4.718e-08   -6.377e-09  
   -1.02000     6.195e-09   -1.869e-08    4.654e-08   -6.195e-09  
   -1.01000     6.017e-09   -1.824e-08    4.547e-08   -6.017e-09  
   -1.00000     5.843e-09   -1.780e-08    4.462e-08   -5.843e-09  
   -0.99000     5.674e-09   -1.737e-08    4.391e-08   -5.674e-09  
   -0.98000     5.508e-09   -1.695e-08    4.306e-08   -5.508e-09  
   -0.97000     5.347e-09   -1.654e-08    4.221e-08   -5.347e-09  
   -0.96000     5.190e-09   -1.613e-08    4.128e-08   -5.190e-09  
   -0.95000     5.036e-09   -1.573e-08    4.064e-08   -5.036e-09  
   -0.94000     4.887e-09   -1.534e-08    3.972e-08   -4.887e-09  
   -0.93000     4.741e-09   -1.496e-08    3.915e-08   -4.741e-09  
   -0.92000     4.599e-09   -1.459e-08    3.816e-08   -4.599e-09  
   -0.91000     4.460e-09   -1.422e-08    3.745e-08   -4.460e-09  
   -0.90000     4.325e-09   -1.386e-08    3.674e-08   -4.325e-09  
   -0.89000     4.193e-09   -1.351e-08    3.617e-08   -4.193e-09  
   -0.88000     4.065e-09   -1.316e-08    3.496e-08   -4.065e-09  
   -0.87000     3.940e-09   -1.282e-08    3.489e-08   -3.940e-09  
   -0.86000     3.819e-09   -1.249e-08    3.375e-08   -3.819e-09  
   -0.85000     3.700e-09   -1.217e-08    3.297e-08   -3.700e-09  
   -0.84000     3.585e-09   -1.185e-08    3.261e-08   -3.585e-09  
   -0.83000     3.472e-09   -1.154e-08    3.169e-08   -3.472e-09  
   -0.82000     3.363e-09   -1.123e-08    3.119e-08   -3.363e-09  
   -0.81000     3.257e-09   -1.093e-08    3.055e-08   -3.257e-09  
   -0.80000     3.153e-09   -1.064e-08    2.970e-08   -3.153e-09  
   -0.79000     3.052e-09   -1.036e-08    2.927e-08   -3.052e-09  
   -0.78000     2.954e-09   -1.008e-08    2.842e-08   -2.954e-09  
   -0.77000     2.859e-09   -9.803e-09    2.814e-08   -2.859e-09  
   -0.76000     2.766e-09   -9.535e-09    2.721e-08   -2.766e-09  
   -0.75000     2.676e-09   -9.274e-09    2.679e-08   -2.676e-09  
   -0.74000     2.588e-09   -9.019e-09    2.615e-08   -2.588e-09  
   -0.73000     2.503e-09   -8.768e-09    2.551e-08   -2.503e-09  
   -0.72000     2.420e-09   -8.524e-09    2.508e-08   -2.420e-09  
   -0.71000     2.340e-09   -8.285e-09    2.437e-08   -2.340e-09  
   -0.70000     2.262e-09   -8.050e-09    2.395e-08   -2.262e-09  
   -0.69000     2.186e-09   -7.824e-09    2.345e-08   -2.186e-09  
   -0.68000     2.112e-09   -7.600e-09    2.260e-08   -2.112e-09  
   -0.67000     2.040e-09   -7.382e-09    2.245e-08   -2.040e-09  
   -0.66000     1.970e-09   -7.170e-09    2.181e-08   -1.970e-09  
   -0.65000     1.903e-09   -6.963e-09    2.117e-08   -1.903e-09  
   -0.64000     1.837e-09   -6.759e-09    2.068e-08   -1.837e-09  
   -0.63000     1.774e-09   -6.560e-09    2.039e-08   -1.774e-09  
   -0.62000     1.712e-09   -6.367e-09    1.990e-08   -1.712e-09  
   -0.61000     1.652e-09   -6.179e-09    1.933e-08   -1.652e-09  
   -0.60000     1.594e-09   -5.995e-09    1.883e-08   -1.594e-09  
   -0.59000     1.537e-09   -5.817e-09    1.840e-08   -1.537e-09  
   -0.58000     1.483e-09   -5.640e-09    1.783e-08   -1.483e-09  
   -0.57000     1.430e-09   -5.469e-09    1.769e-08   -1.430e-09  
   -0.56000     1.378e-09   -5.302e-09    1.705e-08   -1.378e-09  
   -0.55000     1.328e-09   -5.139e-09    1.670e-08   -1.328e-09  
   -0.54000     1.280e-09   -4.981e-09    1.627e-08   -1.280e-09  
   -0.53000     1.233e-09   -4.827e-09    1.585e-08   -1.233e-09  
   -0.52000     1.188e-09   -4.676e-09    1.542e-08   -1.188e-09  
   -0.51000     1.144e-09   -4.530e-09    1.506e-08   -1.144e-09  
   -0.50000     1.102e-09   -4.387e-09    1.464e-08   -1.102e-09  
   -0.49000     1.061e-09   -4.248e-09    1.428e-08   -1.061e-09  
   -0.48000     1.021e-09   -4.113e-09    1.393e-08   -1.021e-09  
   -0.47000     9.822e-10   -3.979e-09    1.350e-08   -9.822e-10  
   -0.46000     9.450e-10   -3.851e-09    1.336e-08   -9.450e-10  
   -0.45000     9.089e-10   -3.725e-09    1.279e-08   -9.089e-10  
   -0.44000     8.741e-10   -3.605e-09    1.258e-08   -8.741e-10  
   -0.43000     8.404e-10   -3.485e-09    1.208e-08   -8.404e-10  
   -0.42000     8.078e-10   -3.371e-09    1.194e-08   -8.078e-10  
   -0.41000     7.763e-10   -3.258e-09    1.144e-08   -7.763e-10  
   -0.40000     7.459e-10   -3.148e-09    1.130e-08   -7.459e-10  
   -0.39000     7.165e-10   -3.043e-09    1.101e-08   -7.165e-10  
   -0.38000     6.881e-10   -2.939e-09    1.044e-08   -6.881e-10  
   -0.37000     6.607e-10   -2.840e-09    1.044e-08   -6.607e-10  
   -0.36000     6.342e-10   -2.740e-09    9.877e-09   -6.342e-10  
   -0.35000     6.087e-10   -2.646e-09    1.002e-08   -6.087e-10  
   -0.34000     5.841e-10   -2.552e-09    9.379e-09   -5.841e-10  
   -0.33000     5.603e-10   -2.463e-09    9.379e-09   -5.603e-10  
   -0.32000     5.375e-10   -2.373e-09    8.953e-09   -5.375e-10  
   -0.31000     5.154e-10   -2.288e-09    8.953e-09   -5.154e-10  
   -0.30000     4.942e-10   -2.203e-09    8.527e-09   -4.942e-10  
   -0.29000     4.739e-10   -2.120e-09    8.527e-09   -4.739e-10  
   -0.28000     4.543e-10   -2.036e-09    8.313e-09   -4.543e-10  
   -0.27000     4.356e-10   -1.954e-09    8.384e-09   -4.356e-10  
   -0.26000     4.178e-10   -1.872e-09    8.171e-09   -4.178e-10  
   -0.25000     4.008e-10   -1.786e-09    8.242e-09   -4.008e-10  
   -0.24000     3.847e-10   -1.698e-09    8.598e-09   -3.847e-10  
   -0.23000     3.697e-10   -1.605e-09    8.740e-09   -3.697e-10  
   -0.22000     3.558e-10   -1.505e-09    9.308e-09   -3.558e-10  
   -0.21000     3.431e-10   -1.393e-09    1.002e-08   -3.431e-10  
   -0.20000     3.320e-10   -1.264e-09    1.123e-08   -3.320e-10  
   -0.19000     3.227e-10   -1.115e-09    1.286e-08   -3.227e-10  
   -0.18000     3.156e-10   -9.308e-10    1.492e-08   -3.156e-10  
   -0.17000     3.114e-10   -7.049e-10    1.840e-08   -3.114e-10  
   -0.16000     3.109e-10   -4.192e-10    2.260e-08   -3.109e-10  
   -0.15000     3.153e-10   -4.832e-11    2.856e-08   -3.153e-10  
   -0.14000     3.260e-10    4.356e-10    3.709e-08   -3.260e-10  
   -0.13000     3.453e-10    1.074e-09    4.839e-08   -3.453e-10  
   -0.12000     3.761e-10    1.929e-09    6.388e-08   -3.761e-10  
   -0.11000     4.223e-10    3.075e-09    8.548e-08   -4.223e-10  
   -0.10000     4.894e-10    4.619e-09    1.145e-07   -4.894e-10  
 -9.0000e-02    5.849e-10    6.712e-09    1.545e-07   -5.849e-10  
 -8.0000e-02    7.189e-10    9.547e-09    2.093e-07   -7.189e-10  
 -7.0000e-02    9.053e-10    1.340e-08    2.835e-07   -9.053e-10  
 -6.0000e-02    1.163e-09    1.864e-08    3.855e-07   -1.163e-09  
 -5.0000e-02    1.518e-09    2.579e-08    5.243e-07   -1.518e-09  
 -4.0000e-02    2.006e-09    3.551e-08    7.142e-07   -2.006e-09  
 -3.0000e-02    2.674e-09    4.877e-08    9.727e-07   -2.674e-09  
 -2.0000e-02    3.589e-09    6.684e-08    1.326e-06   -3.589e-09  
 -1.0000e-02    4.839e-09    9.145e-08    1.807e-06   -4.839e-09  
    0.          6.544e-09    1.250e-07    2.461e-06   -6.544e-09  
  1.0000e-02    8.867e-09    1.705e-07    3.350e-06   -8.867e-09  
  2.0000e-02    1.203e-08    2.323e-07    4.556e-06   -1.203e-08  
  3.0000e-02    1.632e-08    3.161e-07    6.183e-06   -1.632e-08  
  4.0000e-02    2.213e-08    4.291e-07    8.372e-06   -2.213e-08  
  5.0000e-02    2.996e-08    5.808e-07    1.130e-05   -2.996e-08  
  6.0000e-02    4.048e-08    7.835e-07    1.518e-05   -4.048e-08  
  7.0000e-02    5.452e-08    1.052e-06    2.026e-05   -5.452e-08  
  8.0000e-02    7.310e-08    1.404e-06    2.684e-05   -7.310e-08  
  9.0000e-02    9.748e-08    1.859e-06    3.518e-05   -9.748e-08  
    0.10000     1.291e-07    2.438e-06    4.550e-05   -1.291e-07  
    0.11000     1.695e-07    3.160e-06    5.790e-05   -1.695e-07  
    0.12000     2.204e-07    4.041e-06    7.224e-05   -2.204e-07  
    0.13000     2.833e-07    5.088e-06    8.809e-05   -2.833e-07  
    0.14000     3.598e-07    6.297e-06    1.047e-04   -3.598e-07  
    0.15000     4.511e-07    7.652e-06    1.209e-04   -4.511e-07  
    0.16000     5.579e-07    9.126e-06    1.356e-04   -5.579e-07  
    0.17000     6.806e-07    1.068e-05    1.474e-04   -6.806e-07  
    0.18000     8.192e-07    1.227e-05    1.554e-04   -8.192e-07  
    0.19000     9.732e-07    1.386e-05    1.592e-04   -9.732e-07  
    0.20000     1.142e-06    1.540e-05    1.586e-04   -1.142e-06  
    0.21000     1.324e-06    1.687e-05    1.542e-04   -1.324e-06  
    0.22000     1.519e-06    1.824e-05    1.467e-04   -1.519e-06  
    0.23000     1.726e-06    1.950e-05    1.370e-04   -1.726e-06  
    0.24000     1.942e-06    2.064e-05    1.260e-04   -1.942e-06  
    0.25000     2.168e-06    2.167e-05    1.143e-04   -2.168e-06  
    0.26000     2.402e-06    2.258e-05    1.026e-04   -2.402e-06  
    0.27000     2.643e-06    2.338e-05    9.114e-05   -2.643e-06  
    0.28000     2.890e-06    2.408e-05    8.027e-05   -2.890e-06  
    0.29000     3.142e-06    2.469e-05    7.014e-05   -3.142e-06  
    0.30000     3.398e-06    2.521e-05    6.083e-05   -3.398e-06  
    0.31000     3.659e-06    2.566e-05    5.234e-05   -3.659e-06  
    0.32000     3.922e-06    2.604e-05    4.462e-05   -3.922e-06  
    0.33000     4.188e-06    2.635e-05    3.763e-05   -4.188e-06  
    0.34000     4.456e-06    2.661e-05    3.129e-05   -4.456e-06  
    0.35000     4.726e-06    2.681e-05    2.555e-05   -4.726e-06  
    0.36000     4.997e-06    2.696e-05    2.033e-05   -4.997e-06  
    0.37000     5.268e-06    2.708e-05    1.559e-05   -5.268e-06  
    0.38000     5.540e-06    2.715e-05    1.128e-05   -5.540e-06  
    0.39000     5.812e-06    2.719e-05    7.339e-06   -5.812e-06  
    0.40000     6.084e-06    2.719e-05    3.744e-06   -6.084e-06  
    0.41000     6.355e-06    2.717e-05    4.542e-07   -6.355e-06  
    0.42000     6.625e-06    2.711e-05   -2.560e-06   -6.625e-06  
    0.43000     6.895e-06    2.704e-05   -5.326e-06   -6.895e-06  
    0.44000     7.163e-06    2.693e-05   -7.867e-06   -7.163e-06  
    0.45000     7.429e-06    2.681e-05   -1.020e-05   -7.429e-06  
    0.46000     7.694e-06    2.667e-05   -1.236e-05   -7.694e-06  
    0.47000     7.958e-06    2.650e-05   -1.434e-05   -7.958e-06  
    0.48000     8.219e-06    2.633e-05   -1.616e-05   -8.219e-06  
    0.49000     8.478e-06    2.613e-05   -1.785e-05   -8.478e-06  
    0.50000     8.735e-06    2.592e-05   -1.940e-05   -8.735e-06  
    0.51000     8.990e-06    2.570e-05   -2.083e-05   -8.990e-06  
    0.52000     9.242e-06    2.547e-05   -2.214e-05   -9.242e-06  
    0.53000     9.492e-06    2.522e-05   -2.336e-05   -9.492e-06  
    0.54000     9.739e-06    2.497e-05   -2.447e-05   -9.739e-06  
    0.55000     9.983e-06    2.470e-05   -2.549e-05   -9.983e-06  
    0.56000     1.022e-05    2.443e-05   -2.643e-05   -1.022e-05  
    0.57000     1.046e-05    2.415e-05   -2.729e-05   -1.046e-05  
    0.58000     1.070e-05    2.386e-05   -2.808e-05   -1.070e-05  
    0.59000     1.093e-05    2.357e-05   -2.879e-05   -1.093e-05  
    0.60000     1.116e-05    2.327e-05   -2.944e-05   -1.116e-05  
    0.61000     1.139e-05    2.296e-05   -3.002e-05   -1.139e-05  
    0.62000     1.161e-05    2.265e-05   -3.055e-05   -1.161e-05  
    0.63000     1.183e-05    2.234e-05   -3.102e-05   -1.183e-05  
    0.64000     1.205e-05    2.202e-05   -3.144e-05   -1.205e-05  
    0.65000     1.226e-05    2.170e-05   -3.181e-05   -1.226e-05  
    0.66000     1.247e-05    2.137e-05   -3.213e-05   -1.247e-05  
    0.67000     1.268e-05    2.105e-05   -3.241e-05   -1.268e-05  
    0.68000     1.288e-05    2.072e-05   -3.265e-05   -1.288e-05  
    0.69000     1.308e-05    2.039e-05   -3.285e-05   -1.308e-05  
    0.70000     1.328e-05    2.006e-05   -3.301e-05   -1.328e-05  
    0.71000     1.348e-05    1.973e-05   -3.313e-05   -1.348e-05  
    0.72000     1.367e-05    1.939e-05   -3.322e-05   -1.367e-05  
    0.73000     1.385e-05    1.906e-05   -3.328e-05   -1.385e-05  
    0.74000     1.404e-05    1.873e-05   -3.331e-05   -1.404e-05  
    0.75000     1.422e-05    1.839e-05   -3.331e-05   -1.422e-05  
    0.76000     1.440e-05    1.806e-05   -3.328e-05   -1.440e-05  
    0.77000     1.457e-05    1.773e-05   -3.323e-05   -1.457e-05  
    0.78000     1.474e-05    1.740e-05   -3.316e-05   -1.474e-05  
    0.79000     1.491e-05    1.707e-05   -3.306e-05   -1.491e-05  
    0.80000     1.507e-05    1.674e-05   -3.294e-05   -1.507e-05  
    0.81000     1.523e-05    1.642e-05   -3.280e-05   -1.523e-05  
    0.82000     1.539e-05    1.609e-05   -3.264e-05   -1.539e-05  
    0.83000     1.554e-05    1.577e-05   -3.246e-05   -1.554e-05  
    0.84000     1.570e-05    1.545e-05   -3.227e-05   -1.570e-05  
    0.85000     1.584e-05    1.513e-05   -3.206e-05   -1.584e-05  
    0.86000     1.599e-05    1.481e-05   -3.184e-05   -1.599e-05  
    0.87000     1.613e-05    1.450e-05   -3.160e-05   -1.613e-05  
    0.88000     1.627e-05    1.419e-05   -3.135e-05   -1.627e-05  
    0.89000     1.641e-05    1.388e-05   -3.109e-05   -1.641e-05  
    0.90000     1.654e-05    1.358e-05   -3.082e-05   -1.654e-05  
    0.91000     1.667e-05    1.327e-05   -3.054e-05   -1.667e-05  
    0.92000     1.679e-05    1.297e-05   -3.025e-05   -1.679e-05  
    0.93000     1.692e-05    1.268e-05   -2.995e-05   -1.692e-05  
    0.94000     1.704e-05    1.238e-05   -2.964e-05   -1.704e-05  
    0.95000     1.716e-05    1.209e-05   -2.932e-05   -1.716e-05  
    0.96000     1.727e-05    1.181e-05   -2.900e-05   -1.727e-05  
    0.97000     1.739e-05    1.152e-05   -2.867e-05   -1.739e-05  
    0.98000     1.750e-05    1.124e-05   -2.834e-05   -1.750e-05  
    0.99000     1.760e-05    1.097e-05   -2.800e-05   -1.760e-05  
    1.00000     1.771e-05    1.069e-05   -2.766e-05   -1.771e-05  
    1.01000     1.781e-05    1.042e-05   -2.731e-05   -1.781e-05  
    1.02000     1.791e-05    1.016e-05   -2.697e-05   -1.791e-05  
    1.03000     1.800e-05    9.896e-06   -2.661e-05   -1.800e-05  
    1.04000     1.810e-05    9.637e-06   -2.626e-05   -1.810e-05  
    1.05000     1.819e-05    9.382e-06   -2.590e-05   -1.819e-05  
    1.06000     1.828e-05    9.130e-06   -2.554e-05   -1.828e-05  
    1.07000     1.836e-05    8.882e-06   -2.518e-05   -1.836e-05  
    1.08000     1.845e-05    8.637e-06   -2.482e-05   -1.845e-05  
    1.09000     1.853e-05    8.396e-06   -2.446e-05   -1.853e-05  
    1.10000     1.861e-05    8.159e-06   -2.410e-05   -1.861e-05  
    1.11000     1.869e-05    7.925e-06   -2.374e-05   -1.869e-05  
    1.12000     1.876e-05    7.695e-06   -2.338e-05   -1.876e-05  
    1.13000     1.883e-05    7.468e-06   -2.302e-05   -1.883e-05  
    1.14000     1.890e-05    7.245e-06   -2.266e-05   -1.890e-05  
    1.15000     1.897e-05    7.025e-06   -2.231e-05   -1.897e-05  
    1.16000     1.904e-05    6.809e-06   -2.195e-05   -1.904e-05  
    1.17000     1.910e-05    6.597e-06   -2.160e-05   -1.910e-05  
    1.18000     1.916e-05    6.388e-06   -2.124e-05   -1.916e-05  
    1.19000     1.922e-05    6.182e-06   -2.089e-05   -1.922e-05  
    1.20000     1.928e-05    5.980e-06   -2.055e-05   -1.928e-05  
    1.21000     1.934e-05    5.782e-06   -2.020e-05   -1.934e-05  
    1.22000     1.939e-05    5.587e-06   -1.986e-05   -1.939e-05  
    1.23000     1.944e-05    5.395e-06   -1.952e-05   -1.944e-05  
    1.24000     1.949e-05    5.206e-06   -1.918e-05   -1.949e-05  
    1.25000     1.954e-05    5.021e-06   -1.885e-05   -1.954e-05  
    1.26000     1.959e-05    4.840e-06   -1.851e-05   -1.959e-05  
    1.27000     1.963e-05    4.661e-06   -1.818e-05   -1.963e-05  
    1.28000     1.968e-05    4.486e-06   -1.786e-05   -1.968e-05  
    1.29000     1.972e-05    4.313e-06   -1.754e-05   -1.972e-05  
    1.30000     1.976e-05    4.144e-06   -1.722e-05   -1.976e-05  
y
-----------------------------------------------

          ***** job concluded
1****** HSPICE -- G-2012.06 32-BIT (May 27 2012) RHEL32 ******                  
 ******  
 *sample netlist for bsim6

  ******  job statistics summary tnom=  25.000 temp=  25.000 *****
  
  
 ******  Machine Information  ******
 CPU:
 model name	: AMD Opteron(tm) Processor 248
 cpu MHz	: 2200.048
  
 OS:
 Linux version 2.6.9-22.EL (bhcompile@crowe.devel.redhat.com) (gcc version 3.4.4 20050721 (Red Hat 3.4.4-2)) #1 Mon Sep 19 17:49:49 EDT 2005


  ******  HSPICE Threads Information  ******

  Command Line Threads Count :     1
  Available CPU Count        :     1
  Actual Threads Count       :     1


  ******  Circuit Statistics  ******
  # nodes       =      15 # elements   =       5
  # resistors   =       0 # capacitors =       0 # inductors   =       0
  # mutual_inds =       0 # vccs       =       0 # vcvs        =       0
  # cccs        =       0 # ccvs       =       0 # volt_srcs   =       4
  # curr_srcs   =       0 # diodes     =       0 # bjts        =       0
  # jfets       =       0 # mosfets    =       0 # U elements  =       0
  # T elements  =       0 # W elements =       0 # B elements  =       0
  # S elements  =       0 # P elements =       0 # va device   =       1
  # vector_srcs =       0 # N elements =       0


  ******  Runtime Statistics (seconds)  ******

  analysis           time    # points   tot. iter  conv.iter
  op point           0.00           1           0
  dc sweep           0.23        1044        2096
  readin             0.33
  errchk             0.03
  setup              0.00
  output             0.00


           peak memory used        108.41 megabytes
           total cpu time            0.59 seconds
           total elapsed time        0.82 seconds
           job started at     15:35:31 03/19/2014
           job ended   at     15:35:32 03/19/2014


 lic: Release hspice token(s) 
 lic: total license checkout elapse time:        0.20(s)


pVA concluded on Wed Mar 19 15:35:32 2014

