Using: /cad/synopsys/Hspice/G-2012.06/hspice/linux/hspice ringosc_17.sp
 ****** HSPICE -- G-2012.06 32-BIT (May 27 2012) RHEL32 ******                  
  Copyright (C) 2012 Synopsys, Inc. All Rights Reserved.                        
  Unpublished-rights reserved under US copyright laws.
  This program is protected by law and is subject to the
  terms and conditions of the license agreement from Synopsys.
  Use of this program is your acceptance to be bound by the
  license agreement. HSPICE is the trademark of Synopsys, Inc.
  Input File: ringosc_17.sp                                                     
  Command line options: ringosc_17.sp
 lic:  
 lic: FLEXlm: v10.8 
 lic: USER:   agarwalh             HOSTNAME: xcel1.vlsi.iitk.ac.in 
 lic: HOSTID: 0008a1953eea         PID:      22108 
 lic: Using FLEXlm license file: 
 lic: 27000@xcel0 
 lic: Checkout 1 hspice 
 lic: License/Maintenance for hspice will expire on 15-jun-2014/2013.03 
 lic: 1(in_use)/5(total) FLOATING license(s) on SERVER xcel0 
 lic:   
 Init: read install configuration file: /cad/synopsys/Hspice/G-2012.06/hspice/meta.cfg


 --------------------------------------------------------
|                                                        |
|          Synopsys Unified Verilog-A (pVA v2.0)         |
|                                                        |
|           Machine Name: xcel1.vlsi.iitk.ac.in          |
| Copyright (c) 2011 Synopsys Inc., All Rights Reserved. |
|                                                        |
 --------------------------------------------------------

libepva built by pvamgr synmake_pva_build  on Tue May  1 20:03:16 PDT 2012
HSP_HOME:   /cad/synopsys/Hspice/G-2012.06/hspice
HSP_ARCH:   linux
HSP_GCC :   /cad/synopsys/Hspice/G-2012.06/hspice/GNU/amd64/gcc-4.5.2-static/bin/gcc -m32 
HSP_GCC_VER:   4.5.2
Working-Dir: /users/phd/agarwalh/synopsys_designs/BSIM6/Release_test/bsim6.1.1/bsim6.1.1
Args:        -p hsp -t spi -f ringosc_17.pvadir/pvaHDL.lis -o ringosc_17.pvadir 


Begin of pVA compiling on Wed Mar 19 15:59:18 2014

Parsing './bsim6.va'
Parsing include file '/cad/synopsys/Hspice/G-2012.06/hspice/include/constants.vams'
Parsing include file '/cad/synopsys/Hspice/G-2012.06/hspice/include/disciplines.vams'

End of pVA compiling on Wed Mar 19 15:59:19 2014


End of build pVA DB on Wed Mar 19 15:59:19 2014

*pvaI* Module (bsim6): 4 unexpanded port, 0 init, 2370 behav, 64 contrib, 43/2409 expr(s)
*pvaI* Resizing DB size for v count = 1
*pvaI*        Has DIS (ST SB), 3 afCount
*pvaI*        0 const-G and 0 const-C, Has switch branch.
*pvaI* Module (bsim6): generated 7 flow node(s) during compilation.

End of pVA genC on Wed Mar 19 15:59:22 2014

*pvaI* #### Total 316 line-size(s), 43 expr(s), 64 contr(s), 0 init(s), 2370 behav(s), 4 port(s)

Generating ringosc_17.pvadir/pvaRTL_linux.so


End of submitting pVA ringosc_17.pvadir/pvaRTL.mak on Wed Mar 19 15:59:32 2014


End of pVA elaboration on Wed Mar 19 15:59:32 2014

  **warning** (ringosc_17.sp:14) Global net name, "gnd", in subckt pin list. The pin will be connected to the local net. Recommend to not use global net names in subckt pin lists.
 Loading pVA library ringosc_17.pvadir/pvaRTL_linux.so...
1****** HSPICE -- G-2012.06 32-BIT (May 27 2012) RHEL32 ******                  
 ******  
 *sample netlist for bsim6

  ******  circuit name directory
 circuit number to circuit name directory
   number circuitname                     definition         multiplier
        0 main circuit
        1 xinv1.                          inverter           1.00 
        2 xinv2.                          inverter           1.00 
        3 xinv3.                          inverter           1.00 
        4 xinv4.                          inverter           1.00 
        5 xinv5.                          inverter           1.00 
        6 xinv6.                          inverter           1.00 
        7 xinv7.                          inverter           1.00 
        8 xinv8.                          inverter           1.00 
        9 xinv9.                          inverter           1.00 
       10 xinv10.                         inverter           1.00 
       11 xinv11.                         inverter           1.00 
       12 xinv12.                         inverter           1.00 
       13 xinv13.                         inverter           1.00 
       14 xinv14.                         inverter           1.00 
       15 xinv15.                         inverter           1.00 
       16 xinv16.                         inverter           1.00 
       17 xinv17.                         inverter           1.00 
       18 xinv1.xp1.                      bsim6(va)          1.00 
       19 xinv1.xn1.                      bsim6(va)          1.00 
       20 xinv2.xp1.                      bsim6(va)          1.00 
       21 xinv2.xn1.                      bsim6(va)          1.00 
       22 xinv3.xp1.                      bsim6(va)          1.00 
       23 xinv3.xn1.                      bsim6(va)          1.00 
       24 xinv4.xp1.                      bsim6(va)          1.00 
       25 xinv4.xn1.                      bsim6(va)          1.00 
       26 xinv5.xp1.                      bsim6(va)          1.00 
       27 xinv5.xn1.                      bsim6(va)          1.00 
       28 xinv6.xp1.                      bsim6(va)          1.00 
       29 xinv6.xn1.                      bsim6(va)          1.00 
       30 xinv7.xp1.                      bsim6(va)          1.00 
       31 xinv7.xn1.                      bsim6(va)          1.00 
       32 xinv8.xp1.                      bsim6(va)          1.00 
       33 xinv8.xn1.                      bsim6(va)          1.00 
       34 xinv9.xp1.                      bsim6(va)          1.00 
       35 xinv9.xn1.                      bsim6(va)          1.00 
       36 xinv10.xp1.                     bsim6(va)          1.00 
       37 xinv10.xn1.                     bsim6(va)          1.00 
       38 xinv11.xp1.                     bsim6(va)          1.00 
       39 xinv11.xn1.                     bsim6(va)          1.00 
       40 xinv12.xp1.                     bsim6(va)          1.00 
       41 xinv12.xn1.                     bsim6(va)          1.00 
       42 xinv13.xp1.                     bsim6(va)          1.00 
       43 xinv13.xn1.                     bsim6(va)          1.00 
       44 xinv14.xp1.                     bsim6(va)          1.00 
       45 xinv14.xn1.                     bsim6(va)          1.00 
       46 xinv15.xp1.                     bsim6(va)          1.00 
       47 xinv15.xn1.                     bsim6(va)          1.00 
       48 xinv16.xp1.                     bsim6(va)          1.00 
       49 xinv16.xn1.                     bsim6(va)          1.00 
       50 xinv17.xp1.                     bsim6(va)          1.00 
       51 xinv17.xn1.                     bsim6(va)          1.00 
*pvaI* Creating Verilog-A module 'bsim6' for XINV17.XN1
*pvaI* Creating Verilog-A module 'bsim6' for XINV17.XP1
  
      
 *****************************************************************
 ******  option summary
 ******
 runlvl  = 3         bypass  = 2         
  Opening plot unit= 15
 file=ringosc_17.pa0                                                           

1****** HSPICE -- G-2012.06 32-BIT (May 27 2012) RHEL32 ******                  
 ******  
 *sample netlist for bsim6

  ******  operating point information tnom=  25.000 temp=  25.000 *****
 ***** operating point status is voltage   simulation time is     0.     
     node    =voltage       node    =voltage       node    =voltage

 + 0:1       =   1.0000   0:2       = 7.595e-03  0:3       =   0.9998 
 + 0:4       = 7.603e-03  0:5       =   0.9998   0:6       = 7.603e-03
 + 0:7       =   0.9998   0:8       = 7.603e-03  0:9       =   0.9998 
 + 0:10      = 7.603e-03  0:11      =   0.9998   0:12      = 7.603e-03
 + 0:13      =   0.9998   0:14      = 7.603e-03  0:15      =   0.9998 
 + 0:16      = 7.603e-03  0:17      =   0.9998   0:supply  =   1.0000 

 ******  
 *sample netlist for bsim6

  ******  transient analysis tnom=  25.000 temp=  25.000 *****
x

        time    voltage    
                     1     
    0.            1.0000   
  1.0000e-09      0.9350   
  2.0000e-09      0.8682   
  3.0000e-09      0.8010   
  4.0000e-09      0.7373   
  5.0000e-09      0.6800   
  6.0000e-09      0.6228   
  7.0000e-09      0.5655   
  8.0000e-09      0.5111   
  9.0000e-09      0.4708   
  1.0000e-08      0.4305   
  1.1000e-08      0.3902   
  1.2000e-08      0.3499   
  1.3000e-08      0.3218   
  1.4000e-08      0.2987   
  1.5000e-08      0.2757   
  1.6000e-08      0.2526   
  1.7000e-08      0.2296   
  1.8000e-08      0.2065   
  1.9000e-08      0.1834   
  2.0000e-08      0.1604   
  2.1000e-08      0.1467   
  2.2000e-08      0.1331   
  2.3000e-08      0.1195   
  2.4000e-08      0.1059   
  2.5000e-08    9.234e-02  
  2.6000e-08    7.875e-02  
  2.7000e-08    6.517e-02  
  2.8000e-08    5.252e-02  
  2.9000e-08    5.093e-02  
  3.0000e-08    4.933e-02  
  3.1000e-08    4.774e-02  
  3.2000e-08    4.615e-02  
  3.3000e-08    4.456e-02  
  3.4000e-08    4.297e-02  
  3.5000e-08    4.137e-02  
  3.6000e-08    4.047e-02  
  3.7000e-08    4.035e-02  
  3.8000e-08    4.022e-02  
  3.9000e-08    4.009e-02  
  4.0000e-08    3.997e-02  
  4.1000e-08    3.984e-02  
  4.2000e-08    3.971e-02  
  4.3000e-08    3.947e-02  
  4.4000e-08    3.891e-02  
  4.5000e-08    3.834e-02  
  4.6000e-08    3.777e-02  
  4.7000e-08    3.720e-02  
  4.8000e-08    3.664e-02  
  4.9000e-08    3.607e-02  
  5.0000e-08    3.550e-02  
  5.1000e-08    3.493e-02  
  5.2000e-08    3.442e-02  
  5.3000e-08    3.395e-02  
  5.4000e-08    3.347e-02  
  5.5000e-08    3.300e-02  
  5.6000e-08    3.252e-02  
  5.7000e-08    3.205e-02  
  5.8000e-08    3.157e-02  
  5.9000e-08    3.110e-02  
  6.0000e-08    3.062e-02  
  6.1000e-08    3.015e-02  
  6.2000e-08    2.967e-02  
  6.3000e-08    2.920e-02  
  6.4000e-08    2.872e-02  
  6.5000e-08    2.825e-02  
  6.6000e-08    2.771e-02  
  6.7000e-08    2.672e-02  
  6.8000e-08    2.573e-02  
  6.9000e-08    2.473e-02  
  7.0000e-08    2.374e-02  
  7.1000e-08    2.275e-02  
  7.2000e-08    2.175e-02  
  7.3000e-08    2.076e-02  
  7.4000e-08    1.977e-02  
  7.5000e-08    1.877e-02  
  7.6000e-08    1.778e-02  
  7.7000e-08    1.679e-02  
  7.8000e-08    1.579e-02  
  7.9000e-08    1.547e-02  
  8.0000e-08    1.530e-02  
  8.1000e-08    1.513e-02  
  8.2000e-08    1.496e-02  
  8.3000e-08    1.479e-02  
  8.4000e-08    1.462e-02  
  8.5000e-08    1.445e-02  
  8.6000e-08    1.428e-02  
  8.7000e-08    1.412e-02  
  8.8000e-08    1.431e-02  
  8.9000e-08    1.450e-02  
  9.0000e-08    1.468e-02  
  9.1000e-08    1.487e-02  
  9.2000e-08    1.506e-02  
  9.3000e-08    1.524e-02  
  9.4000e-08    1.543e-02  
  9.5000e-08    1.562e-02  
  9.6000e-08    1.581e-02  
  9.7000e-08    1.599e-02  
  9.8000e-08    1.618e-02  
  9.9000e-08    1.617e-02  
  1.0000e-07    1.590e-02  
  1.0100e-07    1.563e-02  
  1.0200e-07    1.537e-02  
  1.0300e-07    1.510e-02  
  1.0400e-07    1.483e-02  
  1.0500e-07    1.456e-02  
  1.0600e-07    1.430e-02  
  1.0700e-07    1.402e-02  
  1.0800e-07    1.374e-02  
  1.0900e-07    1.347e-02  
  1.1000e-07    1.321e-02  
  1.1100e-07    1.296e-02  
  1.1200e-07    1.271e-02  
  1.1300e-07    1.250e-02  
  1.1400e-07    1.233e-02  
  1.1500e-07    1.215e-02  
  1.1600e-07    1.197e-02  
  1.1700e-07    1.180e-02  
  1.1800e-07    1.162e-02  
  1.1900e-07    1.144e-02  
  1.2000e-07    1.127e-02  
  1.2100e-07    1.109e-02  
  1.2200e-07    1.092e-02  
  1.2300e-07    1.075e-02  
  1.2400e-07    1.061e-02  
  1.2500e-07    1.047e-02  
  1.2600e-07    1.032e-02  
  1.2700e-07    1.018e-02  
  1.2800e-07    1.004e-02  
  1.2900e-07    9.893e-03  
  1.3000e-07    9.750e-03  
  1.3100e-07    9.619e-03  
  1.3200e-07    9.555e-03  
  1.3300e-07    9.491e-03  
  1.3400e-07    9.428e-03  
  1.3500e-07    9.364e-03  
  1.3600e-07    9.301e-03  
  1.3700e-07    9.237e-03  
  1.3800e-07    9.174e-03  
  1.3900e-07    9.110e-03  
  1.4000e-07    9.061e-03  
  1.4100e-07    9.029e-03  
  1.4200e-07    8.997e-03  
  1.4300e-07    8.965e-03  
  1.4400e-07    8.933e-03  
  1.4500e-07    8.901e-03  
  1.4600e-07    8.870e-03  
  1.4700e-07    8.838e-03  
  1.4800e-07    8.806e-03  
  1.4900e-07    8.772e-03  
  1.5000e-07    8.737e-03  
  1.5100e-07    8.701e-03  
  1.5200e-07    8.666e-03  
  1.5300e-07    8.631e-03  
  1.5400e-07    8.596e-03  
  1.5500e-07    8.561e-03  
  1.5600e-07    8.526e-03  
  1.5700e-07    8.491e-03  
  1.5800e-07    8.455e-03  
  1.5900e-07    8.420e-03  
  1.6000e-07    8.385e-03  
  1.6100e-07    8.350e-03  
  1.6200e-07    8.308e-03  
  1.6300e-07    8.262e-03  
  1.6400e-07    8.217e-03  
  1.6500e-07    8.171e-03  
  1.6600e-07    8.125e-03  
  1.6700e-07    8.079e-03  
  1.6800e-07    8.034e-03  
  1.6900e-07    7.988e-03  
  1.7000e-07    7.977e-03  
  1.7100e-07    7.967e-03  
  1.7200e-07    7.958e-03  
  1.7300e-07    7.948e-03  
  1.7400e-07    7.939e-03  
  1.7500e-07    7.929e-03  
  1.7600e-07    7.920e-03  
  1.7700e-07    7.910e-03  
  1.7800e-07    7.900e-03  
  1.7900e-07    7.891e-03  
  1.8000e-07    7.882e-03  
  1.8100e-07    7.875e-03  
  1.8200e-07    7.867e-03  
  1.8300e-07    7.859e-03  
  1.8400e-07    7.852e-03  
  1.8500e-07    7.844e-03  
  1.8600e-07    7.837e-03  
  1.8700e-07    7.829e-03  
  1.8800e-07    7.821e-03  
  1.8900e-07    7.814e-03  
  1.9000e-07    7.806e-03  
  1.9100e-07    7.799e-03  
  1.9200e-07    7.791e-03  
  1.9300e-07    7.783e-03  
  1.9400e-07    7.776e-03  
  1.9500e-07    7.772e-03  
  1.9600e-07    7.767e-03  
  1.9700e-07    7.763e-03  
  1.9800e-07    7.758e-03  
  1.9900e-07    7.753e-03  
  2.0000e-07    7.748e-03  
  2.0100e-07    7.744e-03  
  2.0200e-07    7.741e-03  
  2.0300e-07    7.737e-03  
  2.0400e-07    7.733e-03  
  2.0500e-07    7.729e-03  
  2.0600e-07    7.726e-03  
  2.0700e-07    7.722e-03  
  2.0800e-07    7.718e-03  
  2.0900e-07    7.714e-03  
  2.1000e-07    7.710e-03  
  2.1100e-07    7.706e-03  
  2.1200e-07    7.702e-03  
  2.1300e-07    7.698e-03  
  2.1400e-07    7.695e-03  
  2.1500e-07    7.691e-03  
  2.1600e-07    7.687e-03  
  2.1700e-07    7.683e-03  
  2.1800e-07    7.679e-03  
  2.1900e-07    7.675e-03  
  2.2000e-07    7.671e-03  
  2.2100e-07    7.668e-03  
  2.2200e-07    7.664e-03  
  2.2300e-07    7.660e-03  
  2.2400e-07    7.656e-03  
  2.2500e-07    7.654e-03  
  2.2600e-07    7.653e-03  
  2.2700e-07    7.652e-03  
  2.2800e-07    7.651e-03  
  2.2900e-07    7.650e-03  
  2.3000e-07    7.649e-03  
  2.3100e-07    7.648e-03  
  2.3200e-07    7.647e-03  
  2.3300e-07    7.646e-03  
  2.3400e-07    7.645e-03  
  2.3500e-07    7.644e-03  
  2.3600e-07    7.643e-03  
  2.3700e-07    7.642e-03  
  2.3800e-07    7.641e-03  
  2.3900e-07    7.640e-03  
  2.4000e-07    7.638e-03  
  2.4100e-07    7.637e-03  
  2.4200e-07    7.636e-03  
  2.4300e-07    7.635e-03  
  2.4400e-07    7.634e-03  
  2.4500e-07    7.633e-03  
  2.4600e-07    7.632e-03  
  2.4700e-07    7.631e-03  
  2.4800e-07    7.630e-03  
  2.4900e-07    7.629e-03  
  2.5000e-07    7.627e-03  
  2.5100e-07    7.627e-03  
  2.5200e-07    7.626e-03  
  2.5300e-07    7.625e-03  
  2.5400e-07    7.624e-03  
  2.5500e-07    7.623e-03  
  2.5600e-07    7.623e-03  
  2.5700e-07    7.622e-03  
  2.5800e-07    7.621e-03  
  2.5900e-07    7.620e-03  
  2.6000e-07    7.619e-03  
  2.6100e-07    7.619e-03  
  2.6200e-07    7.618e-03  
  2.6300e-07    7.617e-03  
  2.6400e-07    7.616e-03  
  2.6500e-07    7.615e-03  
  2.6600e-07    7.615e-03  
  2.6700e-07    7.614e-03  
  2.6800e-07    7.613e-03  
  2.6900e-07    7.613e-03  
  2.7000e-07    7.612e-03  
  2.7100e-07    7.611e-03  
  2.7200e-07    7.610e-03  
  2.7300e-07    7.610e-03  
  2.7400e-07    7.610e-03  
  2.7500e-07    7.611e-03  
  2.7600e-07    7.611e-03  
  2.7700e-07    7.611e-03  
  2.7800e-07    7.611e-03  
  2.7900e-07    7.611e-03  
  2.8000e-07    7.611e-03  
  2.8100e-07    7.611e-03  
  2.8200e-07    7.611e-03  
  2.8300e-07    7.612e-03  
  2.8400e-07    7.612e-03  
  2.8500e-07    7.612e-03  
  2.8600e-07    7.612e-03  
  2.8700e-07    7.612e-03  
  2.8800e-07    7.611e-03  
  2.8900e-07    7.611e-03  
  2.9000e-07    7.610e-03  
  2.9100e-07    7.610e-03  
  2.9200e-07    7.609e-03  
  2.9300e-07    7.608e-03  
  2.9400e-07    7.608e-03  
  2.9500e-07    7.607e-03  
  2.9600e-07    7.607e-03  
  2.9700e-07    7.606e-03  
  2.9800e-07    7.605e-03  
  2.9900e-07    7.605e-03  
  3.0000e-07    7.604e-03  
  3.0100e-07    7.605e-03  
  3.0200e-07    7.605e-03  
  3.0300e-07    7.606e-03  
  3.0400e-07    7.607e-03  
  3.0500e-07    7.607e-03  
  3.0600e-07    7.608e-03  
  3.0700e-07    7.609e-03  
  3.0800e-07    7.609e-03  
  3.0900e-07    7.609e-03  
  3.1000e-07    7.609e-03  
  3.1100e-07    7.609e-03  
  3.1200e-07    7.609e-03  
  3.1300e-07    7.609e-03  
  3.1400e-07    7.608e-03  
  3.1500e-07    7.608e-03  
  3.1600e-07    7.608e-03  
  3.1700e-07    7.608e-03  
  3.1800e-07    7.608e-03  
  3.1900e-07    7.606e-03  
  3.2000e-07    7.603e-03  
  3.2100e-07    7.600e-03  
  3.2200e-07    7.597e-03  
  3.2300e-07    7.595e-03  
  3.2400e-07    7.592e-03  
  3.2500e-07    7.589e-03  
  3.2600e-07    7.586e-03  
  3.2700e-07    7.585e-03  
  3.2800e-07    7.584e-03  
  3.2900e-07    7.583e-03  
  3.3000e-07    7.583e-03  
  3.3100e-07    7.582e-03  
  3.3200e-07    7.581e-03  
  3.3300e-07    7.581e-03  
  3.3400e-07    7.580e-03  
  3.3500e-07    7.579e-03  
  3.3600e-07    7.578e-03  
  3.3700e-07    7.578e-03  
  3.3800e-07    7.577e-03  
  3.3900e-07    7.576e-03  
  3.4000e-07    7.581e-03  
  3.4100e-07    7.589e-03  
  3.4200e-07    7.598e-03  
  3.4300e-07    7.606e-03  
  3.4400e-07    7.615e-03  
  3.4500e-07    7.623e-03  
  3.4600e-07    7.632e-03  
  3.4700e-07    7.641e-03  
  3.4800e-07    7.640e-03  
  3.4900e-07    7.639e-03  
  3.5000e-07    7.639e-03  
  3.5100e-07    7.638e-03  
  3.5200e-07    7.637e-03  
  3.5300e-07    7.636e-03  
  3.5400e-07    7.636e-03  
  3.5500e-07    7.635e-03  
  3.5600e-07    7.634e-03  
  3.5700e-07    7.633e-03  
  3.5800e-07    7.635e-03  
  3.5900e-07    7.639e-03  
  3.6000e-07    7.642e-03  
  3.6100e-07    7.646e-03  
  3.6200e-07    7.649e-03  
  3.6300e-07    7.653e-03  
  3.6400e-07    7.656e-03  
  3.6500e-07    7.660e-03  
  3.6600e-07    7.663e-03  
  3.6700e-07    7.667e-03  
  3.6800e-07    7.670e-03  
  3.6900e-07    7.674e-03  
  3.7000e-07    7.677e-03  
  3.7100e-07    7.681e-03  
  3.7200e-07    7.684e-03  
  3.7300e-07    7.690e-03  
  3.7400e-07    7.704e-03  
  3.7500e-07    7.718e-03  
  3.7600e-07    7.732e-03  
  3.7700e-07    7.769e-03  
  3.7800e-07    7.807e-03  
  3.7900e-07    7.837e-03  
  3.8000e-07    7.798e-03  
  3.8100e-07    7.759e-03  
  3.8200e-07    7.721e-03  
  3.8300e-07    7.682e-03  
  3.8400e-07    7.643e-03  
  3.8500e-07    7.605e-03  
  3.8600e-07    7.566e-03  
  3.8700e-07    7.527e-03  
  3.8800e-07    7.485e-03  
  3.8900e-07    7.377e-03  
  3.9000e-07    7.270e-03  
  3.9100e-07    7.162e-03  
  3.9200e-07    7.055e-03  
  3.9300e-07    6.947e-03  
  3.9400e-07    6.839e-03  
  3.9500e-07    6.777e-03  
  3.9600e-07    6.773e-03  
  3.9700e-07    6.770e-03  
  3.9800e-07    6.766e-03  
  3.9900e-07    6.763e-03  
  4.0000e-07    6.759e-03  
  4.0100e-07    6.756e-03  
  4.0200e-07    6.752e-03  
  4.0300e-07    6.749e-03  
  4.0400e-07    6.768e-03  
  4.0500e-07    6.828e-03  
  4.0600e-07    6.888e-03  
  4.0700e-07    6.949e-03  
  4.0800e-07    7.009e-03  
  4.0900e-07    7.070e-03  
  4.1000e-07    7.130e-03  
  4.1100e-07    7.191e-03  
  4.1200e-07    7.251e-03  
  4.1300e-07    7.328e-03  
  4.1400e-07    7.407e-03  
  4.1500e-07    7.486e-03  
  4.1600e-07    7.564e-03  
  4.1700e-07    7.643e-03  
  4.1800e-07    7.721e-03  
  4.1900e-07    7.800e-03  
  4.2000e-07    7.879e-03  
  4.2100e-07    7.957e-03  
  4.2200e-07    8.036e-03  
  4.2300e-07    8.115e-03  
  4.2400e-07    8.193e-03  
  4.2500e-07    8.272e-03  
  4.2600e-07    8.350e-03  
  4.2700e-07    8.429e-03  
  4.2800e-07    8.508e-03  
  4.2900e-07    8.586e-03  
  4.3000e-07    9.139e-03  
  4.3100e-07    9.753e-03  
  4.3200e-07    1.037e-02  
  4.3300e-07    1.098e-02  
  4.3400e-07    1.160e-02  
  4.3500e-07    1.221e-02  
  4.3600e-07    1.282e-02  
  4.3700e-07    1.344e-02  
  4.3800e-07    1.405e-02  
  4.3900e-07    1.467e-02  
  4.4000e-07    1.528e-02  
  4.4100e-07    1.589e-02  
  4.4200e-07    1.651e-02  
  4.4300e-07    1.626e-02  
  4.4400e-07    1.567e-02  
  4.4500e-07    1.507e-02  
  4.4600e-07    1.447e-02  
  4.4700e-07    1.387e-02  
  4.4800e-07    1.327e-02  
  4.4900e-07    1.267e-02  
  4.5000e-07    1.208e-02  
  4.5100e-07    1.148e-02  
  4.5200e-07    9.816e-03  
  4.5300e-07    7.733e-03  
  4.5400e-07    5.650e-03  
  4.5500e-07    3.567e-03  
  4.5600e-07    1.484e-03  
  4.5700e-07   -5.996e-04  
  4.5800e-07   -2.683e-03  
  4.5900e-07   -4.766e-03  
  4.6000e-07   -6.849e-03  
  4.6100e-07   -8.932e-03  
  4.6200e-07   -1.102e-02  
  4.6300e-07   -1.310e-02  
  4.6400e-07   -1.526e-02  
  4.6500e-07   -1.744e-02  
  4.6600e-07   -1.963e-02  
  4.6700e-07   -2.182e-02  
  4.6800e-07   -2.401e-02  
  4.6900e-07   -2.620e-02  
  4.7000e-07   -2.839e-02  
  4.7100e-07   -3.058e-02  
  4.7200e-07   -3.276e-02  
  4.7300e-07   -3.502e-02  
  4.7400e-07   -3.737e-02  
  4.7500e-07   -3.973e-02  
  4.7600e-07   -4.272e-02  
  4.7700e-07   -4.592e-02  
  4.7800e-07   -4.901e-02  
  4.7900e-07   -4.889e-02  
  4.8000e-07   -4.878e-02  
  4.8100e-07   -4.866e-02  
  4.8200e-07   -4.854e-02  
  4.8300e-07   -4.843e-02  
  4.8400e-07   -4.831e-02  
  4.8500e-07   -4.820e-02  
  4.8600e-07   -4.808e-02  
  4.8700e-07   -4.469e-02  
  4.8800e-07   -3.509e-02  
  4.8900e-07   -2.549e-02  
  4.9000e-07   -1.589e-02  
  4.9100e-07   -6.292e-03  
  4.9200e-07    3.309e-03  
  4.9300e-07    1.291e-02  
  4.9400e-07    2.251e-02  
  4.9500e-07    4.365e-02  
  4.9600e-07    6.721e-02  
  4.9700e-07    9.078e-02  
  4.9800e-07      0.1143   
  4.9900e-07      0.1379   
  5.0000e-07      0.1615   
  5.0100e-07      0.1850   
  5.0200e-07      0.2086   
  5.0300e-07      0.2315   
  5.0400e-07      0.2532   
  5.0500e-07      0.2750   
  5.0600e-07      0.2967   
  5.0700e-07      0.3184   
  5.0800e-07      0.3402   
  5.0900e-07      0.3619   
  5.1000e-07      0.3837   
  5.1100e-07      0.4054   
  5.1200e-07      0.4271   
  5.1300e-07      0.4489   
  5.1400e-07      0.4701   
  5.1500e-07      0.4866   
  5.1600e-07      0.5032   
  5.1700e-07      0.5197   
  5.1800e-07      0.5363   
  5.1900e-07      0.5528   
  5.2000e-07      0.5693   
  5.2100e-07      0.5859   
  5.2200e-07      0.5980   
  5.2300e-07      0.6094   
  5.2400e-07      0.6209   
  5.2500e-07      0.6324   
  5.2600e-07      0.6438   
  5.2700e-07      0.6553   
  5.2800e-07      0.6668   
  5.2900e-07      0.6783   
  5.3000e-07      0.6897   
  5.3100e-07      0.7012   
  5.3200e-07      0.7127   
  5.3300e-07      0.7222   
  5.3400e-07      0.7311   
  5.3500e-07      0.7400   
  5.3600e-07      0.7489   
  5.3700e-07      0.7578   
  5.3800e-07      0.7667   
  5.3900e-07      0.7756   
  5.4000e-07      0.7845   
  5.4100e-07      0.7933   
  5.4200e-07      0.8022   
  5.4300e-07      0.8111   
  5.4400e-07      0.8185   
  5.4500e-07      0.8214   
  5.4600e-07      0.8243   
  5.4700e-07      0.8272   
  5.4800e-07      0.8301   
  5.4900e-07      0.8330   
  5.5000e-07      0.8359   
  5.5100e-07      0.8388   
  5.5200e-07      0.8417   
  5.5300e-07      0.8446   
  5.5400e-07      0.8475   
  5.5500e-07      0.8504   
  5.5600e-07      0.8533   
  5.5700e-07      0.8562   
  5.5800e-07      0.8590   
  5.5900e-07      0.8619   
  5.6000e-07      0.8647   
  5.6100e-07      0.8675   
  5.6200e-07      0.8704   
  5.6300e-07      0.8732   
  5.6400e-07      0.8761   
  5.6500e-07      0.8789   
  5.6600e-07      0.8826   
  5.6700e-07      0.8865   
  5.6800e-07      0.8903   
  5.6900e-07      0.8942   
  5.7000e-07      0.8980   
  5.7100e-07      0.9019   
  5.7200e-07      0.9057   
  5.7300e-07      0.9096   
  5.7400e-07      0.9134   
  5.7500e-07      0.9173   
  5.7600e-07      0.9211   
  5.7700e-07      0.9250   
  5.7800e-07      0.9288   
  5.7900e-07      0.9321   
  5.8000e-07      0.9345   
  5.8100e-07      0.9370   
  5.8200e-07      0.9394   
  5.8300e-07      0.9419   
  5.8400e-07      0.9443   
  5.8500e-07      0.9468   
  5.8600e-07      0.9492   
  5.8700e-07      0.9513   
  5.8800e-07      0.9530   
  5.8900e-07      0.9546   
  5.9000e-07      0.9563   
  5.9100e-07      0.9580   
  5.9200e-07      0.9596   
  5.9300e-07      0.9613   
  5.9400e-07      0.9630   
  5.9500e-07      0.9646   
  5.9600e-07      0.9663   
  5.9700e-07      0.9679   
  5.9800e-07      0.9688   
  5.9900e-07      0.9698   
  6.0000e-07      0.9707   
  6.0100e-07      0.9716   
  6.0200e-07      0.9726   
  6.0300e-07      0.9735   
  6.0400e-07      0.9744   
  6.0500e-07      0.9754   
  6.0600e-07      0.9763   
  6.0700e-07      0.9772   
  6.0800e-07      0.9782   
  6.0900e-07      0.9791   
  6.1000e-07      0.9800   
  6.1100e-07      0.9810   
  6.1200e-07      0.9817   
  6.1300e-07      0.9823   
  6.1400e-07      0.9829   
  6.1500e-07      0.9835   
  6.1600e-07      0.9840   
  6.1700e-07      0.9846   
  6.1800e-07      0.9852   
  6.1900e-07      0.9858   
  6.2000e-07      0.9863   
  6.2100e-07      0.9869   
  6.2200e-07      0.9874   
  6.2300e-07      0.9879   
  6.2400e-07      0.9884   
  6.2500e-07      0.9890   
  6.2600e-07      0.9895   
  6.2700e-07      0.9900   
  6.2800e-07      0.9905   
  6.2900e-07      0.9910   
  6.3000e-07      0.9916   
  6.3100e-07      0.9920   
  6.3200e-07      0.9923   
  6.3300e-07      0.9926   
  6.3400e-07      0.9929   
  6.3500e-07      0.9931   
  6.3600e-07      0.9934   
  6.3700e-07      0.9937   
  6.3800e-07      0.9940   
  6.3900e-07      0.9942   
  6.4000e-07      0.9945   
  6.4100e-07      0.9946   
  6.4200e-07      0.9948   
  6.4300e-07      0.9949   
  6.4400e-07      0.9951   
  6.4500e-07      0.9952   
  6.4600e-07      0.9953   
  6.4700e-07      0.9955   
  6.4800e-07      0.9956   
  6.4900e-07      0.9957   
  6.5000e-07      0.9959   
  6.5100e-07      0.9960   
  6.5200e-07      0.9961   
  6.5300e-07      0.9963   
  6.5400e-07      0.9964   
  6.5500e-07      0.9965   
  6.5600e-07      0.9966   
  6.5700e-07      0.9967   
  6.5800e-07      0.9968   
  6.5900e-07      0.9969   
  6.6000e-07      0.9970   
  6.6100e-07      0.9971   
  6.6200e-07      0.9972   
  6.6300e-07      0.9973   
  6.6400e-07      0.9974   
  6.6500e-07      0.9975   
  6.6600e-07      0.9976   
  6.6700e-07      0.9976   
  6.6800e-07      0.9977   
  6.6900e-07      0.9978   
  6.7000e-07      0.9978   
  6.7100e-07      0.9979   
  6.7200e-07      0.9980   
  6.7300e-07      0.9981   
  6.7400e-07      0.9981   
  6.7500e-07      0.9982   
  6.7600e-07      0.9983   
  6.7700e-07      0.9983   
  6.7800e-07      0.9984   
  6.7900e-07      0.9984   
  6.8000e-07      0.9985   
  6.8100e-07      0.9986   
  6.8200e-07      0.9986   
  6.8300e-07      0.9986   
  6.8400e-07      0.9987   
  6.8500e-07      0.9987   
  6.8600e-07      0.9988   
  6.8700e-07      0.9988   
  6.8800e-07      0.9988   
  6.8900e-07      0.9989   
  6.9000e-07      0.9989   
  6.9100e-07      0.9990   
  6.9200e-07      0.9990   
  6.9300e-07      0.9990   
  6.9400e-07      0.9991   
  6.9500e-07      0.9991   
  6.9600e-07      0.9991   
  6.9700e-07      0.9991   
  6.9800e-07      0.9991   
  6.9900e-07      0.9992   
  7.0000e-07      0.9992   
  7.0100e-07      0.9992   
  7.0200e-07      0.9992   
  7.0300e-07      0.9992   
  7.0400e-07      0.9993   
  7.0500e-07      0.9993   
  7.0600e-07      0.9993   
  7.0700e-07      0.9993   
  7.0800e-07      0.9993   
  7.0900e-07      0.9994   
  7.1000e-07      0.9994   
  7.1100e-07      0.9994   
  7.1200e-07      0.9994   
  7.1300e-07      0.9994   
  7.1400e-07      0.9994   
  7.1500e-07      0.9995   
  7.1600e-07      0.9995   
  7.1700e-07      0.9995   
  7.1800e-07      0.9995   
  7.1900e-07      0.9995   
  7.2000e-07      0.9995   
  7.2100e-07      0.9996   
  7.2200e-07      0.9996   
  7.2300e-07      0.9996   
  7.2400e-07      0.9996   
  7.2500e-07      0.9996   
  7.2600e-07      0.9996   
  7.2700e-07      0.9996   
  7.2800e-07      0.9996   
  7.2900e-07      0.9996   
  7.3000e-07      0.9996   
  7.3100e-07      0.9996   
  7.3200e-07      0.9997   
  7.3300e-07      0.9997   
  7.3400e-07      0.9997   
  7.3500e-07      0.9997   
  7.3600e-07      0.9997   
  7.3700e-07      0.9997   
  7.3800e-07      0.9997   
  7.3900e-07      0.9997   
  7.4000e-07      0.9997   
  7.4100e-07      0.9997   
  7.4200e-07      0.9997   
  7.4300e-07      0.9997   
  7.4400e-07      0.9997   
  7.4500e-07      0.9997   
  7.4600e-07      0.9997   
  7.4700e-07      0.9997   
  7.4800e-07      0.9997   
  7.4900e-07      0.9997   
  7.5000e-07      0.9997   
  7.5100e-07      0.9998   
  7.5200e-07      0.9998   
  7.5300e-07      0.9998   
  7.5400e-07      0.9998   
  7.5500e-07      0.9998   
  7.5600e-07      0.9998   
  7.5700e-07      0.9998   
  7.5800e-07      0.9998   
  7.5900e-07      0.9998   
  7.6000e-07      0.9998   
  7.6100e-07      0.9998   
  7.6200e-07      0.9998   
  7.6300e-07      0.9998   
  7.6400e-07      0.9998   
  7.6500e-07      0.9998   
  7.6600e-07      0.9998   
  7.6700e-07      0.9998   
  7.6800e-07      0.9998   
  7.6900e-07      0.9998   
  7.7000e-07      0.9998   
  7.7100e-07      0.9998   
  7.7200e-07      0.9998   
  7.7300e-07      0.9998   
  7.7400e-07      0.9998   
  7.7500e-07      0.9998   
  7.7600e-07      0.9998   
  7.7700e-07      0.9998   
  7.7800e-07      0.9998   
  7.7900e-07      0.9998   
  7.8000e-07      0.9998   
  7.8100e-07      0.9998   
  7.8200e-07      0.9998   
  7.8300e-07      0.9998   
  7.8400e-07      0.9998   
  7.8500e-07      0.9998   
  7.8600e-07      0.9998   
  7.8700e-07      0.9998   
  7.8800e-07      0.9998   
  7.8900e-07      0.9998   
  7.9000e-07      0.9998   
  7.9100e-07      0.9998   
  7.9200e-07      0.9998   
  7.9300e-07      0.9998   
  7.9400e-07      0.9998   
  7.9500e-07      0.9998   
  7.9600e-07      0.9998   
  7.9700e-07      0.9998   
  7.9800e-07      0.9998   
  7.9900e-07      0.9998   
  8.0000e-07      0.9998   
  8.0100e-07      0.9998   
  8.0200e-07      0.9998   
  8.0300e-07      0.9998   
  8.0400e-07      0.9998   
  8.0500e-07      0.9998   
  8.0600e-07      0.9998   
  8.0700e-07      0.9998   
  8.0800e-07      0.9998   
  8.0900e-07      0.9998   
  8.1000e-07      0.9998   
  8.1100e-07      0.9998   
  8.1200e-07      0.9998   
  8.1300e-07      0.9998   
  8.1400e-07      0.9998   
  8.1500e-07      0.9998   
  8.1600e-07      0.9998   
  8.1700e-07      0.9998   
  8.1800e-07      0.9998   
  8.1900e-07      0.9998   
  8.2000e-07      0.9998   
  8.2100e-07      0.9998   
  8.2200e-07      0.9998   
  8.2300e-07      0.9998   
  8.2400e-07      0.9998   
  8.2500e-07      0.9998   
  8.2600e-07      0.9998   
  8.2700e-07      0.9998   
  8.2800e-07      0.9998   
  8.2900e-07      0.9998   
  8.3000e-07      0.9998   
  8.3100e-07      0.9998   
  8.3200e-07      0.9998   
  8.3300e-07      0.9998   
  8.3400e-07      0.9998   
  8.3500e-07      0.9998   
  8.3600e-07      0.9998   
  8.3700e-07      0.9998   
  8.3800e-07      0.9998   
  8.3900e-07      0.9998   
  8.4000e-07      0.9998   
  8.4100e-07      0.9998   
  8.4200e-07      0.9998   
  8.4300e-07      0.9998   
  8.4400e-07      0.9999   
  8.4500e-07      0.9999   
  8.4600e-07      0.9999   
  8.4700e-07      0.9999   
  8.4800e-07      0.9999   
  8.4900e-07      0.9999   
  8.5000e-07      0.9999   
  8.5100e-07      0.9999   
  8.5200e-07      0.9999   
  8.5300e-07      0.9999   
  8.5400e-07      0.9999   
  8.5500e-07      0.9999   
  8.5600e-07      0.9999   
  8.5700e-07      0.9999   
  8.5800e-07      0.9998   
  8.5900e-07      0.9998   
  8.6000e-07      0.9998   
  8.6100e-07      0.9998   
  8.6200e-07      0.9998   
  8.6300e-07      0.9998   
  8.6400e-07      0.9998   
  8.6500e-07      0.9998   
  8.6600e-07      0.9997   
  8.6700e-07      0.9997   
  8.6800e-07      0.9997   
  8.6900e-07      0.9997   
  8.7000e-07      0.9997   
  8.7100e-07      0.9997   
  8.7200e-07      0.9997   
  8.7300e-07      0.9997   
  8.7400e-07      0.9997   
  8.7500e-07      0.9997   
  8.7600e-07      0.9997   
  8.7700e-07      0.9997   
  8.7800e-07      0.9997   
  8.7900e-07      0.9997   
  8.8000e-07      0.9997   
  8.8100e-07      0.9998   
  8.8200e-07      0.9998   
  8.8300e-07      0.9998   
  8.8400e-07      0.9998   
  8.8500e-07      0.9998   
  8.8600e-07      0.9998   
  8.8700e-07      0.9998   
  8.8800e-07      0.9998   
  8.8900e-07      0.9998   
  8.9000e-07      0.9999   
  8.9100e-07      0.9999   
  8.9200e-07      0.9999   
  8.9300e-07      0.9999   
  8.9400e-07      0.9999   
  8.9500e-07      0.9999   
  8.9600e-07      1.0000   
  8.9700e-07      1.0000   
  8.9800e-07      1.0001   
  8.9900e-07      1.0001   
  9.0000e-07      1.0002   
  9.0100e-07      1.0002   
  9.0200e-07      1.0003   
  9.0300e-07      1.0003   
  9.0400e-07      1.0004   
  9.0500e-07      1.0004   
  9.0600e-07      1.0005   
  9.0700e-07      1.0005   
  9.0800e-07      1.0006   
  9.0900e-07      1.0006   
  9.1000e-07      1.0007   
  9.1100e-07      1.0008   
  9.1200e-07      1.0009   
  9.1300e-07      1.0011   
  9.1400e-07      1.0012   
  9.1500e-07      1.0012   
  9.1600e-07      1.0011   
  9.1700e-07      1.0011   
  9.1800e-07      1.0010   
  9.1900e-07      1.0010   
  9.2000e-07      1.0009   
  9.2100e-07      1.0008   
  9.2200e-07      1.0008   
  9.2300e-07      1.0005   
  9.2400e-07      1.0001   
  9.2500e-07      0.9997   
  9.2600e-07      0.9993   
  9.2700e-07      0.9990   
  9.2800e-07      0.9986   
  9.2900e-07      0.9982   
  9.3000e-07      0.9979   
  9.3100e-07      0.9975   
  9.3200e-07      0.9971   
  9.3300e-07      0.9968   
  9.3400e-07      0.9964   
  9.3500e-07      0.9961   
  9.3600e-07      0.9957   
  9.3700e-07      0.9954   
  9.3800e-07      0.9950   
  9.3900e-07      0.9947   
  9.4000e-07      0.9945   
  9.4100e-07      0.9943   
  9.4200e-07      0.9941   
  9.4300e-07      0.9939   
  9.4400e-07      0.9937   
  9.4500e-07      0.9935   
  9.4600e-07      0.9933   
  9.4700e-07      0.9933   
  9.4800e-07      0.9935   
  9.4900e-07      0.9938   
  9.5000e-07      0.9940   
  9.5100e-07      0.9942   
  9.5200e-07      0.9944   
  9.5300e-07      0.9946   
  9.5400e-07      0.9948   
  9.5500e-07      0.9951   
  9.5600e-07      0.9953   
  9.5700e-07      0.9955   
  9.5800e-07      0.9957   
  9.5900e-07      0.9959   
  9.6000e-07      0.9961   
  9.6100e-07      0.9964   
  9.6200e-07      0.9966   
  9.6300e-07      0.9968   
  9.6400e-07      0.9970   
  9.6500e-07      1.0000   
  9.6600e-07      1.0034   
  9.6700e-07      1.0069   
  9.6800e-07      1.0103   
  9.6900e-07      1.0138   
  9.7000e-07      1.0172   
  9.7100e-07      1.0207   
  9.7200e-07      1.0241   
  9.7300e-07      1.0276   
  9.7400e-07      1.0310   
  9.7500e-07      1.0344   
  9.7600e-07      1.0379   
  9.7700e-07      1.0413   
  9.7800e-07      1.0436   
  9.7900e-07      1.0452   
  9.8000e-07      1.0468   
  9.8100e-07      1.0485   
  9.8200e-07      1.0501   
  9.8300e-07      1.0517   
  9.8400e-07      1.0533   
  9.8500e-07      1.0549   
  9.8600e-07      1.0565   
  9.8700e-07      1.0535   
  9.8800e-07      1.0459   
  9.8900e-07      1.0383   
  9.9000e-07      1.0307   
  9.9100e-07      1.0232   
  9.9200e-07      1.0156   
  9.9300e-07      1.0080   
  9.9400e-07      1.0004   
  9.9500e-07      0.9928   
  9.9600e-07      0.9852   
  9.9700e-07      0.9776   
  9.9800e-07      0.9700   
  9.9900e-07      0.9577   
  1.0000e-06      0.9429   
  1.0010e-06      0.9278   
  1.0020e-06      0.9114   
  1.0030e-06      0.8949   
  1.0040e-06      0.8785   
  1.0050e-06      0.8530   
  1.0060e-06      0.8275   
  1.0070e-06      0.8020   
  1.0080e-06      0.7764   
  1.0090e-06      0.7509   
  1.0100e-06      0.7254   
  1.0110e-06      0.6998   
  1.0120e-06      0.6743   
  1.0130e-06      0.6488   
  1.0140e-06      0.6233   
  1.0150e-06      0.5943   
  1.0160e-06      0.5645   
  1.0170e-06      0.5348   
  1.0180e-06      0.5050   
  1.0190e-06      0.4753   
  1.0200e-06      0.4455   
  1.0210e-06      0.4158   
  1.0220e-06      0.3860   
  1.0230e-06      0.3611   
  1.0240e-06      0.3405   
  1.0250e-06      0.3198   
  1.0260e-06      0.2992   
  1.0270e-06      0.2785   
  1.0280e-06      0.2579   
  1.0290e-06      0.2372   
  1.0300e-06      0.2166   
  1.0310e-06      0.1959   
  1.0320e-06      0.1768   
  1.0330e-06      0.1638   
  1.0340e-06      0.1507   
  1.0350e-06      0.1377   
  1.0360e-06      0.1247   
  1.0370e-06      0.1117   
  1.0380e-06    9.867e-02  
  1.0390e-06    8.565e-02  
  1.0400e-06    7.263e-02  
  1.0410e-06    6.921e-02  
  1.0420e-06    6.744e-02  
  1.0430e-06    6.568e-02  
  1.0440e-06    6.391e-02  
  1.0450e-06    6.215e-02  
  1.0460e-06    6.038e-02  
  1.0470e-06    5.862e-02  
  1.0480e-06    5.685e-02  
  1.0490e-06    5.509e-02  
  1.0500e-06    5.332e-02  
  1.0510e-06    5.156e-02  
  1.0520e-06    4.979e-02  
  1.0530e-06    4.803e-02  
  1.0540e-06    4.691e-02  
  1.0550e-06    4.621e-02  
  1.0560e-06    4.551e-02  
  1.0570e-06    4.481e-02  
  1.0580e-06    4.411e-02  
  1.0590e-06    4.341e-02  
  1.0600e-06    4.271e-02  
  1.0610e-06    4.201e-02  
  1.0620e-06    4.128e-02  
  1.0630e-06    4.055e-02  
  1.0640e-06    3.982e-02  
  1.0650e-06    3.909e-02  
  1.0660e-06    3.836e-02  
  1.0670e-06    3.764e-02  
  1.0680e-06    3.691e-02  
  1.0690e-06    3.618e-02  
  1.0700e-06    3.545e-02  
  1.0710e-06    3.472e-02  
  1.0720e-06    3.392e-02  
  1.0730e-06    3.308e-02  
  1.0740e-06    3.224e-02  
  1.0750e-06    3.140e-02  
  1.0760e-06    3.056e-02  
  1.0770e-06    2.972e-02  
  1.0780e-06    2.888e-02  
  1.0790e-06    2.804e-02  
  1.0800e-06    2.719e-02  
  1.0810e-06    2.635e-02  
  1.0820e-06    2.551e-02  
  1.0830e-06    2.467e-02  
  1.0840e-06    2.383e-02  
  1.0850e-06    2.299e-02  
  1.0860e-06    2.215e-02  
  1.0870e-06    2.136e-02  
  1.0880e-06    2.060e-02  
  1.0890e-06    1.985e-02  
  1.0900e-06    1.906e-02  
  1.0910e-06    1.823e-02  
  1.0920e-06    1.741e-02  
  1.0930e-06    1.697e-02  
  1.0940e-06    1.676e-02  
  1.0950e-06    1.656e-02  
  1.0960e-06    1.636e-02  
  1.0970e-06    1.615e-02  
  1.0980e-06    1.595e-02  
  1.0990e-06    1.575e-02  
  1.1000e-06    1.554e-02  
  1.1010e-06    1.534e-02  
  1.1020e-06    1.542e-02  
  1.1030e-06    1.567e-02  
  1.1040e-06    1.591e-02  
  1.1050e-06    1.616e-02  
  1.1060e-06    1.640e-02  
  1.1070e-06    1.665e-02  
  1.1080e-06    1.687e-02  
  1.1090e-06    1.663e-02  
  1.1100e-06    1.639e-02  
  1.1110e-06    1.615e-02  
  1.1120e-06    1.591e-02  
  1.1130e-06    1.568e-02  
  1.1140e-06    1.544e-02  
  1.1150e-06    1.520e-02  
  1.1160e-06    1.496e-02  
  1.1170e-06    1.473e-02  
  1.1180e-06    1.446e-02  
  1.1190e-06    1.419e-02  
  1.1200e-06    1.392e-02  
  1.1210e-06    1.365e-02  
  1.1220e-06    1.338e-02  
  1.1230e-06    1.311e-02  
  1.1240e-06    1.284e-02  
  1.1250e-06    1.257e-02  
  1.1260e-06    1.237e-02  
  1.1270e-06    1.222e-02  
  1.1280e-06    1.206e-02  
  1.1290e-06    1.191e-02  
  1.1300e-06    1.176e-02  
  1.1310e-06    1.161e-02  
  1.1320e-06    1.146e-02  
  1.1330e-06    1.131e-02  
  1.1340e-06    1.116e-02  
  1.1350e-06    1.100e-02  
  1.1360e-06    1.085e-02  
  1.1370e-06    1.070e-02  
  1.1380e-06    1.055e-02  
  1.1390e-06    1.040e-02  
  1.1400e-06    1.025e-02  
  1.1410e-06    1.010e-02  
  1.1420e-06    9.945e-03  
  1.1430e-06    9.818e-03  
  1.1440e-06    9.731e-03  
  1.1450e-06    9.645e-03  
  1.1460e-06    9.558e-03  
  1.1470e-06    9.471e-03  
  1.1480e-06    9.384e-03  
  1.1490e-06    9.298e-03  
  1.1500e-06    9.211e-03  
  1.1510e-06    9.124e-03  
  1.1520e-06    9.037e-03  
  1.1530e-06    8.951e-03  
  1.1540e-06    8.864e-03  
  1.1550e-06    8.777e-03  
  1.1560e-06    8.712e-03  
  1.1570e-06    8.718e-03  
  1.1580e-06    8.724e-03  
  1.1590e-06    8.729e-03  
  1.1600e-06    8.735e-03  
  1.1610e-06    8.741e-03  
  1.1620e-06    8.747e-03  
  1.1630e-06    8.753e-03  
  1.1640e-06    8.759e-03  
  1.1650e-06    8.753e-03  
  1.1660e-06    8.701e-03  
  1.1670e-06    8.650e-03  
  1.1680e-06    8.599e-03  
  1.1690e-06    8.548e-03  
  1.1700e-06    8.497e-03  
  1.1710e-06    8.445e-03  
  1.1720e-06    8.394e-03  
  1.1730e-06    8.343e-03  
  1.1740e-06    8.292e-03  
  1.1750e-06    8.240e-03  
  1.1760e-06    8.189e-03  
  1.1770e-06    8.143e-03  
  1.1780e-06    8.111e-03  
  1.1790e-06    8.080e-03  
  1.1800e-06    8.055e-03  
  1.1810e-06    8.031e-03  
  1.1820e-06    8.007e-03  
  1.1830e-06    7.990e-03  
  1.1840e-06    7.978e-03  
  1.1850e-06    7.966e-03  
  1.1860e-06    7.954e-03  
  1.1870e-06    7.942e-03  
  1.1880e-06    7.930e-03  
  1.1890e-06    7.919e-03  
  1.1900e-06    7.907e-03  
  1.1910e-06    7.895e-03  
  1.1920e-06    7.883e-03  
  1.1930e-06    7.873e-03  
  1.1940e-06    7.865e-03  
  1.1950e-06    7.856e-03  
  1.1960e-06    7.848e-03  
  1.1970e-06    7.840e-03  
  1.1980e-06    7.832e-03  
  1.1990e-06    7.824e-03  
  1.2000e-06    7.816e-03  
  1.2010e-06    7.808e-03  
  1.2020e-06    7.803e-03  
  1.2030e-06    7.798e-03  
  1.2040e-06    7.792e-03  
  1.2050e-06    7.787e-03  
  1.2060e-06    7.782e-03  
  1.2070e-06    7.776e-03  
  1.2080e-06    7.771e-03  
  1.2090e-06    7.766e-03  
  1.2100e-06    7.760e-03  
  1.2110e-06    7.755e-03  
  1.2120e-06    7.752e-03  
  1.2130e-06    7.748e-03  
  1.2140e-06    7.744e-03  
  1.2150e-06    7.740e-03  
  1.2160e-06    7.736e-03  
  1.2170e-06    7.732e-03  
  1.2180e-06    7.728e-03  
  1.2190e-06    7.725e-03  
  1.2200e-06    7.720e-03  
  1.2210e-06    7.716e-03  
  1.2220e-06    7.712e-03  
  1.2230e-06    7.708e-03  
  1.2240e-06    7.703e-03  
  1.2250e-06    7.699e-03  
  1.2260e-06    7.695e-03  
  1.2270e-06    7.690e-03  
  1.2280e-06    7.686e-03  
  1.2290e-06    7.682e-03  
  1.2300e-06    7.678e-03  
  1.2310e-06    7.673e-03  
  1.2320e-06    7.669e-03  
  1.2330e-06    7.666e-03  
  1.2340e-06    7.664e-03  
  1.2350e-06    7.661e-03  
  1.2360e-06    7.658e-03  
  1.2370e-06    7.655e-03  
  1.2380e-06    7.652e-03  
  1.2390e-06    7.650e-03  
  1.2400e-06    7.648e-03  
  1.2410e-06    7.647e-03  
  1.2420e-06    7.647e-03  
  1.2430e-06    7.646e-03  
  1.2440e-06    7.645e-03  
  1.2450e-06    7.645e-03  
  1.2460e-06    7.644e-03  
  1.2470e-06    7.643e-03  
  1.2480e-06    7.643e-03  
  1.2490e-06    7.642e-03  
  1.2500e-06    7.642e-03  
  1.2510e-06    7.640e-03  
  1.2520e-06    7.639e-03  
  1.2530e-06    7.638e-03  
  1.2540e-06    7.637e-03  
  1.2550e-06    7.636e-03  
  1.2560e-06    7.635e-03  
  1.2570e-06    7.633e-03  
  1.2580e-06    7.632e-03  
  1.2590e-06    7.631e-03  
  1.2600e-06    7.630e-03  
  1.2610e-06    7.629e-03  
  1.2620e-06    7.627e-03  
  1.2630e-06    7.626e-03  
  1.2640e-06    7.625e-03  
  1.2650e-06    7.624e-03  
  1.2660e-06    7.623e-03  
  1.2670e-06    7.622e-03  
  1.2680e-06    7.622e-03  
  1.2690e-06    7.621e-03  
  1.2700e-06    7.621e-03  
  1.2710e-06    7.620e-03  
  1.2720e-06    7.619e-03  
  1.2730e-06    7.619e-03  
  1.2740e-06    7.618e-03  
  1.2750e-06    7.617e-03  
  1.2760e-06    7.616e-03  
  1.2770e-06    7.615e-03  
  1.2780e-06    7.614e-03  
  1.2790e-06    7.614e-03  
  1.2800e-06    7.613e-03  
  1.2810e-06    7.612e-03  
  1.2820e-06    7.612e-03  
  1.2830e-06    7.612e-03  
  1.2840e-06    7.611e-03  
  1.2850e-06    7.611e-03  
  1.2860e-06    7.611e-03  
  1.2870e-06    7.611e-03  
  1.2880e-06    7.611e-03  
  1.2890e-06    7.611e-03  
  1.2900e-06    7.611e-03  
  1.2910e-06    7.612e-03  
  1.2920e-06    7.612e-03  
  1.2930e-06    7.612e-03  
  1.2940e-06    7.613e-03  
  1.2950e-06    7.613e-03  
  1.2960e-06    7.613e-03  
  1.2970e-06    7.613e-03  
  1.2980e-06    7.612e-03  
  1.2990e-06    7.612e-03  
  1.3000e-06    7.611e-03  
  1.3010e-06    7.610e-03  
  1.3020e-06    7.610e-03  
  1.3030e-06    7.609e-03  
  1.3040e-06    7.609e-03  
  1.3050e-06    7.608e-03  
  1.3060e-06    7.608e-03  
  1.3070e-06    7.608e-03  
  1.3080e-06    7.607e-03  
  1.3090e-06    7.607e-03  
  1.3100e-06    7.607e-03  
  1.3110e-06    7.606e-03  
  1.3120e-06    7.606e-03  
  1.3130e-06    7.606e-03  
  1.3140e-06    7.605e-03  
  1.3150e-06    7.605e-03  
  1.3160e-06    7.605e-03  
  1.3170e-06    7.604e-03  
  1.3180e-06    7.604e-03  
  1.3190e-06    7.604e-03  
  1.3200e-06    7.603e-03  
  1.3210e-06    7.603e-03  
  1.3220e-06    7.603e-03  
  1.3230e-06    7.604e-03  
  1.3240e-06    7.605e-03  
  1.3250e-06    7.606e-03  
  1.3260e-06    7.607e-03  
  1.3270e-06    7.607e-03  
  1.3280e-06    7.608e-03  
  1.3290e-06    7.609e-03  
  1.3300e-06    7.610e-03  
  1.3310e-06    7.611e-03  
  1.3320e-06    7.612e-03  
  1.3330e-06    7.612e-03  
  1.3340e-06    7.613e-03  
  1.3350e-06    7.612e-03  
  1.3360e-06    7.606e-03  
  1.3370e-06    7.600e-03  
  1.3380e-06    7.594e-03  
  1.3390e-06    7.588e-03  
  1.3400e-06    7.582e-03  
  1.3410e-06    7.575e-03  
  1.3420e-06    7.569e-03  
  1.3430e-06    7.563e-03  
  1.3440e-06    7.559e-03  
  1.3450e-06    7.564e-03  
  1.3460e-06    7.568e-03  
  1.3470e-06    7.572e-03  
  1.3480e-06    7.576e-03  
  1.3490e-06    7.580e-03  
  1.3500e-06    7.584e-03  
  1.3510e-06    7.589e-03  
  1.3520e-06    7.593e-03  
  1.3530e-06    7.597e-03  
  1.3540e-06    7.601e-03  
  1.3550e-06    7.605e-03  
  1.3560e-06    7.610e-03  
  1.3570e-06    7.615e-03  
  1.3580e-06    7.619e-03  
  1.3590e-06    7.624e-03  
  1.3600e-06    7.629e-03  
  1.3610e-06    7.634e-03  
  1.3620e-06    7.639e-03  
  1.3630e-06    7.644e-03  
  1.3640e-06    7.649e-03  
  1.3650e-06    7.653e-03  
  1.3660e-06    7.649e-03  
  1.3670e-06    7.643e-03  
  1.3680e-06    7.636e-03  
  1.3690e-06    7.624e-03  
  1.3700e-06    7.612e-03  
  1.3710e-06    7.613e-03  
  1.3720e-06    7.623e-03  
  1.3730e-06    7.633e-03  
  1.3740e-06    7.643e-03  
  1.3750e-06    7.653e-03  
  1.3760e-06    7.663e-03  
  1.3770e-06    7.673e-03  
  1.3780e-06    7.684e-03  
  1.3790e-06    7.694e-03  
  1.3800e-06    7.707e-03  
  1.3810e-06    7.721e-03  
  1.3820e-06    7.735e-03  
  1.3830e-06    7.749e-03  
  1.3840e-06    7.763e-03  
  1.3850e-06    7.777e-03  
  1.3860e-06    7.791e-03  
  1.3870e-06    7.797e-03  
  1.3880e-06    7.790e-03  
  1.3890e-06    7.784e-03  
  1.3900e-06    7.777e-03  
  1.3910e-06    7.770e-03  
  1.3920e-06    7.763e-03  
  1.3930e-06    7.756e-03  
  1.3940e-06    7.749e-03  
  1.3950e-06    7.742e-03  
  1.3960e-06    7.667e-03  
  1.3970e-06    7.584e-03  
  1.3980e-06    7.501e-03  
  1.3990e-06    7.419e-03  
  1.4000e-06    7.336e-03  
  1.4010e-06    7.253e-03  
  1.4020e-06    7.171e-03  
  1.4030e-06    7.088e-03  
  1.4040e-06    7.005e-03  
  1.4050e-06    6.922e-03  
  1.4060e-06    6.840e-03  
  1.4070e-06    6.797e-03  
  1.4080e-06    6.779e-03  
  1.4090e-06    6.761e-03  
  1.4100e-06    6.743e-03  
  1.4110e-06    6.724e-03  
  1.4120e-06    6.706e-03  
  1.4130e-06    6.688e-03  
  1.4140e-06    6.699e-03  
  1.4150e-06    6.754e-03  
  1.4160e-06    6.810e-03  
  1.4170e-06    6.865e-03  
  1.4180e-06    6.921e-03  
  1.4190e-06    6.976e-03  
  1.4200e-06    7.031e-03  
  1.4210e-06    7.087e-03  
  1.4220e-06    7.142e-03  
  1.4230e-06    7.197e-03  
  1.4240e-06    7.253e-03  
  1.4250e-06    7.305e-03  
  1.4260e-06    7.350e-03  
  1.4270e-06    7.394e-03  
  1.4280e-06    7.439e-03  
  1.4290e-06    7.483e-03  
  1.4300e-06    7.527e-03  
  1.4310e-06    7.572e-03  
  1.4320e-06    7.616e-03  
  1.4330e-06    7.661e-03  
  1.4340e-06    7.705e-03  
  1.4350e-06    7.750e-03  
  1.4360e-06    7.794e-03  
  1.4370e-06    8.209e-03  
  1.4380e-06    8.734e-03  
  1.4390e-06    9.258e-03  
  1.4400e-06    9.783e-03  
  1.4410e-06    1.031e-02  
  1.4420e-06    1.083e-02  
  1.4430e-06    1.136e-02  
  1.4440e-06    1.188e-02  
  1.4450e-06    1.241e-02  
  1.4460e-06    1.293e-02  
  1.4470e-06    1.346e-02  
  1.4480e-06    1.398e-02  
  1.4490e-06    1.451e-02  
  1.4500e-06    1.490e-02  
  1.4510e-06    1.508e-02  
  1.4520e-06    1.525e-02  
  1.4530e-06    1.542e-02  
  1.4540e-06    1.559e-02  
  1.4550e-06    1.577e-02  
  1.4560e-06    1.594e-02  
  1.4570e-06    1.611e-02  
  1.4580e-06    1.555e-02  
  1.4590e-06    1.388e-02  
  1.4600e-06    1.221e-02  
  1.4610e-06    1.054e-02  
  1.4620e-06    8.871e-03  
  1.4630e-06    7.201e-03  
  1.4640e-06    5.532e-03  
  1.4650e-06    3.863e-03  
  1.4660e-06    2.193e-03  
  1.4670e-06    5.238e-04  
  1.4680e-06   -1.146e-03  
  1.4690e-06   -2.815e-03  
  1.4700e-06   -4.484e-03  
  1.4710e-06   -6.154e-03  
  1.4720e-06   -8.415e-03  
  1.4730e-06   -1.071e-02  
  1.4740e-06   -1.301e-02  
  1.4750e-06   -1.531e-02  
  1.4760e-06   -1.760e-02  
  1.4770e-06   -1.990e-02  
  1.4780e-06   -2.220e-02  
  1.4790e-06   -2.450e-02  
  1.4800e-06   -2.695e-02  
  1.4810e-06   -2.940e-02  
  1.4820e-06   -3.185e-02  
  1.4830e-06   -3.430e-02  
  1.4840e-06   -3.675e-02  
  1.4850e-06   -3.920e-02  
  1.4860e-06   -4.165e-02  
  1.4870e-06   -4.410e-02  
  1.4880e-06   -4.655e-02  
  1.4890e-06   -4.900e-02  
  1.4900e-06   -4.758e-02  
  1.4910e-06   -4.380e-02  
  1.4920e-06   -4.002e-02  
  1.4930e-06   -3.624e-02  
  1.4940e-06   -3.245e-02  
  1.4950e-06   -2.867e-02  
  1.4960e-06   -2.489e-02  
  1.4970e-06   -2.110e-02  
  1.4980e-06   -1.732e-02  
  1.4990e-06   -1.354e-02  
  1.5000e-06   -9.753e-03  
  1.5010e-06   -5.970e-03  
  1.5020e-06   -2.186e-03  
  1.5030e-06    1.597e-03  
  1.5040e-06    5.380e-03  
  1.5050e-06    2.564e-02  
  1.5060e-06    4.664e-02  
  1.5070e-06    6.765e-02  
  1.5080e-06    8.866e-02  
  1.5090e-06      0.1097   
  1.5100e-06      0.1307   
  1.5110e-06      0.1517   
  1.5120e-06      0.1727   
  1.5130e-06      0.1939   
  1.5140e-06      0.2165   
  1.5150e-06      0.2392   
  1.5160e-06      0.2618   
  1.5170e-06      0.2844   
  1.5180e-06      0.3070   
  1.5190e-06      0.3297   
  1.5200e-06      0.3523   
  1.5210e-06      0.3749   
  1.5220e-06      0.3975   
  1.5230e-06      0.4201   
  1.5240e-06      0.4391   
  1.5250e-06      0.4565   
  1.5260e-06      0.4738   
  1.5270e-06      0.4912   
  1.5280e-06      0.5086   
  1.5290e-06      0.5259   
  1.5300e-06      0.5433   
  1.5310e-06      0.5607   
  1.5320e-06      0.5780   
  1.5330e-06      0.5917   
  1.5340e-06      0.6033   
  1.5350e-06      0.6149   
  1.5360e-06      0.6265   
  1.5370e-06      0.6381   
  1.5380e-06      0.6497   
  1.5390e-06      0.6613   
  1.5400e-06      0.6728   
  1.5410e-06      0.6844   
  1.5420e-06      0.6960   
  1.5430e-06      0.7076   
  1.5440e-06      0.7177   
  1.5450e-06      0.7273   
  1.5460e-06      0.7373   
  1.5470e-06      0.7477   
  1.5480e-06      0.7582   
  1.5490e-06      0.7670   
  1.5500e-06      0.7739   
  1.5510e-06      0.7808   
  1.5520e-06      0.7878   
  1.5530e-06      0.7947   
  1.5540e-06      0.8017   
  1.5550e-06      0.8086   
  1.5560e-06      0.8155   
  1.5570e-06      0.8225   
  1.5580e-06      0.8269   
  1.5590e-06      0.8297   
  1.5600e-06      0.8324   
  1.5610e-06      0.8351   
  1.5620e-06      0.8378   
  1.5630e-06      0.8405   
  1.5640e-06      0.8432   
  1.5650e-06      0.8459   
  1.5660e-06      0.8484   
  1.5670e-06      0.8510   
  1.5680e-06      0.8536   
  1.5690e-06      0.8561   
  1.5700e-06      0.8587   
  1.5710e-06      0.8612   
  1.5720e-06      0.8638   
  1.5730e-06      0.8664   
  1.5740e-06      0.8698   
  1.5750e-06      0.8737   
  1.5760e-06      0.8777   
  1.5770e-06      0.8816   
  1.5780e-06      0.8855   
  1.5790e-06      0.8895   
  1.5800e-06      0.8934   
  1.5810e-06      0.8973   
  1.5820e-06      0.9013   
  1.5830e-06      0.9052   
  1.5840e-06      0.9091   
  1.5850e-06      0.9128   
  1.5860e-06      0.9162   
  1.5870e-06      0.9196   
  1.5880e-06      0.9229   
  1.5890e-06      0.9263   
  1.5900e-06      0.9297   
  1.5910e-06      0.9330   
  1.5920e-06      0.9362   
  1.5930e-06      0.9383   
  1.5940e-06      0.9404   
  1.5950e-06      0.9426   
  1.5960e-06      0.9447   
  1.5970e-06      0.9468   
  1.5980e-06      0.9489   
  1.5990e-06      0.9510   
  1.6000e-06      0.9532   
  1.6010e-06      0.9553   
  1.6020e-06      0.9574   
  1.6030e-06      0.9595   
  1.6040e-06      0.9608   
  1.6050e-06      0.9622   
  1.6060e-06      0.9635   
  1.6070e-06      0.9648   
  1.6080e-06      0.9662   
  1.6090e-06      0.9675   
  1.6100e-06      0.9689   
  1.6110e-06      0.9702   
  1.6120e-06      0.9715   
  1.6130e-06      0.9729   
  1.6140e-06      0.9742   
  1.6150e-06      0.9752   
  1.6160e-06      0.9759   
  1.6170e-06      0.9766   
  1.6180e-06      0.9772   
  1.6190e-06      0.9779   
  1.6200e-06      0.9786   
  1.6210e-06      0.9793   
  1.6220e-06      0.9799   
  1.6230e-06      0.9806   
  1.6240e-06      0.9813   
  1.6250e-06      0.9819   
  1.6260e-06      0.9826   
  1.6270e-06      0.9833   
  1.6280e-06      0.9840   
  1.6290e-06      0.9846   
  1.6300e-06      0.9853   
  1.6310e-06      0.9859   
  1.6320e-06      0.9866   
  1.6330e-06      0.9872   
  1.6340e-06      0.9877   
  1.6350e-06      0.9883   
  1.6360e-06      0.9888   
  1.6370e-06      0.9894   
  1.6380e-06      0.9899   
  1.6390e-06      0.9905   
  1.6400e-06      0.9909   
  1.6410e-06      0.9913   
  1.6420e-06      0.9916   
  1.6430e-06      0.9919   
  1.6440e-06      0.9923   
  1.6450e-06      0.9926   
  1.6460e-06      0.9930   
  1.6470e-06      0.9933   
  1.6480e-06      0.9936   
  1.6490e-06      0.9938   
  1.6500e-06      0.9939   
  1.6510e-06      0.9941   
  1.6520e-06      0.9943   
  1.6530e-06      0.9945   
  1.6540e-06      0.9947   
  1.6550e-06      0.9949   
  1.6560e-06      0.9950   
  1.6570e-06      0.9952   
  1.6580e-06      0.9954   
  1.6590e-06      0.9955   
  1.6600e-06      0.9956   
  1.6610e-06      0.9958   
  1.6620e-06      0.9959   
  1.6630e-06      0.9960   
  1.6640e-06      0.9962   
  1.6650e-06      0.9963   
  1.6660e-06      0.9964   
  1.6670e-06      0.9966   
  1.6680e-06      0.9967   
  1.6690e-06      0.9967   
  1.6700e-06      0.9968   
  1.6710e-06      0.9969   
  1.6720e-06      0.9970   
  1.6730e-06      0.9971   
  1.6740e-06      0.9972   
  1.6750e-06      0.9973   
  1.6760e-06      0.9974   
  1.6770e-06      0.9975   
  1.6780e-06      0.9976   
  1.6790e-06      0.9977   
  1.6800e-06      0.9977   
  1.6810e-06      0.9978   
  1.6820e-06      0.9979   
  1.6830e-06      0.9980   
  1.6840e-06      0.9980   
  1.6850e-06      0.9981   
  1.6860e-06      0.9982   
  1.6870e-06      0.9982   
  1.6880e-06      0.9983   
  1.6890e-06      0.9983   
  1.6900e-06      0.9984   
  1.6910e-06      0.9985   
  1.6920e-06      0.9985   
  1.6930e-06      0.9986   
  1.6940e-06      0.9986   
  1.6950e-06      0.9987   
  1.6960e-06      0.9987   
  1.6970e-06      0.9988   
  1.6980e-06      0.9988   
  1.6990e-06      0.9989   
  1.7000e-06      0.9989   
  1.7010e-06      0.9989   
  1.7020e-06      0.9990   
  1.7030e-06      0.9990   
  1.7040e-06      0.9990   
  1.7050e-06      0.9990   
  1.7060e-06      0.9991   
  1.7070e-06      0.9991   
  1.7080e-06      0.9991   
  1.7090e-06      0.9991   
  1.7100e-06      0.9992   
  1.7110e-06      0.9992   
  1.7120e-06      0.9992   
  1.7130e-06      0.9992   
  1.7140e-06      0.9992   
  1.7150e-06      0.9993   
  1.7160e-06      0.9993   
  1.7170e-06      0.9993   
  1.7180e-06      0.9993   
  1.7190e-06      0.9993   
  1.7200e-06      0.9994   
  1.7210e-06      0.9994   
  1.7220e-06      0.9994   
  1.7230e-06      0.9994   
  1.7240e-06      0.9994   
  1.7250e-06      0.9994   
  1.7260e-06      0.9995   
  1.7270e-06      0.9995   
  1.7280e-06      0.9995   
  1.7290e-06      0.9995   
  1.7300e-06      0.9995   
  1.7310e-06      0.9995   
  1.7320e-06      0.9995   
  1.7330e-06      0.9996   
  1.7340e-06      0.9996   
  1.7350e-06      0.9996   
  1.7360e-06      0.9996   
  1.7370e-06      0.9996   
  1.7380e-06      0.9996   
  1.7390e-06      0.9996   
  1.7400e-06      0.9996   
  1.7410e-06      0.9996   
  1.7420e-06      0.9996   
  1.7430e-06      0.9996   
  1.7440e-06      0.9997   
  1.7450e-06      0.9997   
  1.7460e-06      0.9997   
  1.7470e-06      0.9997   
  1.7480e-06      0.9997   
  1.7490e-06      0.9997   
  1.7500e-06      0.9997   
  1.7510e-06      0.9997   
  1.7520e-06      0.9997   
  1.7530e-06      0.9997   
  1.7540e-06      0.9997   
  1.7550e-06      0.9997   
  1.7560e-06      0.9997   
  1.7570e-06      0.9997   
  1.7580e-06      0.9997   
  1.7590e-06      0.9997   
  1.7600e-06      0.9997   
  1.7610e-06      0.9997   
  1.7620e-06      0.9997   
  1.7630e-06      0.9998   
  1.7640e-06      0.9998   
  1.7650e-06      0.9998   
  1.7660e-06      0.9998   
  1.7670e-06      0.9998   
  1.7680e-06      0.9998   
  1.7690e-06      0.9998   
  1.7700e-06      0.9998   
  1.7710e-06      0.9998   
  1.7720e-06      0.9998   
  1.7730e-06      0.9998   
  1.7740e-06      0.9998   
  1.7750e-06      0.9998   
  1.7760e-06      0.9998   
  1.7770e-06      0.9998   
  1.7780e-06      0.9998   
  1.7790e-06      0.9998   
  1.7800e-06      0.9998   
  1.7810e-06      0.9998   
  1.7820e-06      0.9998   
  1.7830e-06      0.9998   
  1.7840e-06      0.9998   
  1.7850e-06      0.9998   
  1.7860e-06      0.9998   
  1.7870e-06      0.9998   
  1.7880e-06      0.9998   
  1.7890e-06      0.9998   
  1.7900e-06      0.9998   
  1.7910e-06      0.9998   
  1.7920e-06      0.9998   
  1.7930e-06      0.9998   
  1.7940e-06      0.9998   
  1.7950e-06      0.9998   
  1.7960e-06      0.9998   
  1.7970e-06      0.9998   
  1.7980e-06      0.9998   
  1.7990e-06      0.9998   
  1.8000e-06      0.9998   
  1.8010e-06      0.9998   
  1.8020e-06      0.9998   
  1.8030e-06      0.9998   
  1.8040e-06      0.9998   
  1.8050e-06      0.9998   
  1.8060e-06      0.9998   
  1.8070e-06      0.9998   
  1.8080e-06      0.9998   
  1.8090e-06      0.9998   
  1.8100e-06      0.9998   
  1.8110e-06      0.9998   
  1.8120e-06      0.9998   
  1.8130e-06      0.9998   
  1.8140e-06      0.9998   
  1.8150e-06      0.9998   
  1.8160e-06      0.9998   
  1.8170e-06      0.9998   
  1.8180e-06      0.9998   
  1.8190e-06      0.9998   
  1.8200e-06      0.9998   
  1.8210e-06      0.9998   
  1.8220e-06      0.9998   
  1.8230e-06      0.9998   
  1.8240e-06      0.9998   
  1.8250e-06      0.9998   
  1.8260e-06      0.9998   
  1.8270e-06      0.9998   
  1.8280e-06      0.9998   
  1.8290e-06      0.9998   
  1.8300e-06      0.9998   
  1.8310e-06      0.9998   
  1.8320e-06      0.9998   
  1.8330e-06      0.9998   
  1.8340e-06      0.9998   
  1.8350e-06      0.9998   
  1.8360e-06      0.9998   
  1.8370e-06      0.9998   
  1.8380e-06      0.9998   
  1.8390e-06      0.9998   
  1.8400e-06      0.9998   
  1.8410e-06      0.9998   
  1.8420e-06      0.9998   
  1.8430e-06      0.9998   
  1.8440e-06      0.9998   
  1.8450e-06      0.9998   
  1.8460e-06      0.9998   
  1.8470e-06      0.9998   
  1.8480e-06      0.9998   
  1.8490e-06      0.9998   
  1.8500e-06      0.9998   
  1.8510e-06      0.9998   
  1.8520e-06      0.9998   
  1.8530e-06      0.9998   
  1.8540e-06      0.9998   
  1.8550e-06      0.9998   
  1.8560e-06      0.9998   
  1.8570e-06      0.9998   
  1.8580e-06      0.9998   
  1.8590e-06      0.9998   
  1.8600e-06      0.9998   
  1.8610e-06      0.9999   
  1.8620e-06      0.9999   
  1.8630e-06      0.9999   
  1.8640e-06      0.9999   
  1.8650e-06      0.9999   
  1.8660e-06      0.9999   
  1.8670e-06      0.9999   
  1.8680e-06      0.9999   
  1.8690e-06      0.9999   
  1.8700e-06      0.9999   
  1.8710e-06      0.9999   
  1.8720e-06      0.9998   
  1.8730e-06      0.9998   
  1.8740e-06      0.9998   
  1.8750e-06      0.9998   
  1.8760e-06      0.9998   
  1.8770e-06      0.9997   
  1.8780e-06      0.9997   
  1.8790e-06      0.9997   
  1.8800e-06      0.9997   
  1.8810e-06      0.9997   
  1.8820e-06      0.9997   
  1.8830e-06      0.9997   
  1.8840e-06      0.9997   
  1.8850e-06      0.9997   
  1.8860e-06      0.9997   
  1.8870e-06      0.9997   
  1.8880e-06      0.9997   
  1.8890e-06      0.9997   
  1.8900e-06      0.9997   
  1.8910e-06      0.9997   
  1.8920e-06      0.9997   
  1.8930e-06      0.9998   
  1.8940e-06      0.9998   
  1.8950e-06      0.9998   
  1.8960e-06      0.9998   
  1.8970e-06      0.9998   
  1.8980e-06      0.9998   
  1.8990e-06      0.9998   
  1.9000e-06      0.9998   
  1.9010e-06      0.9998   
  1.9020e-06      0.9998   
  1.9030e-06      0.9999   
  1.9040e-06      0.9999   
  1.9050e-06      0.9999   
  1.9060e-06      0.9999   
  1.9070e-06      0.9999   
  1.9080e-06      0.9999   
  1.9090e-06      1.0000   
  1.9100e-06      1.0000   
  1.9110e-06      1.0001   
  1.9120e-06      1.0001   
  1.9130e-06      1.0002   
  1.9140e-06      1.0002   
  1.9150e-06      1.0003   
  1.9160e-06      1.0004   
  1.9170e-06      1.0005   
  1.9180e-06      1.0006   
  1.9190e-06      1.0007   
  1.9200e-06      1.0008   
  1.9210e-06      1.0009   
  1.9220e-06      1.0010   
  1.9230e-06      1.0010   
  1.9240e-06      1.0011   
  1.9250e-06      1.0012   
  1.9260e-06      1.0011   
  1.9270e-06      1.0011   
  1.9280e-06      1.0011   
  1.9290e-06      1.0011   
  1.9300e-06      1.0011   
  1.9310e-06      1.0011   
  1.9320e-06      1.0010   
  1.9330e-06      1.0009   
  1.9340e-06      1.0005   
  1.9350e-06      1.0002   
  1.9360e-06      0.9998   
  1.9370e-06      0.9995   
  1.9380e-06      0.9991   
  1.9390e-06      0.9988   
  1.9400e-06      0.9984   
  1.9410e-06      0.9981   
  1.9420e-06      0.9977   
  1.9430e-06      0.9974   
  1.9440e-06      0.9970   
  1.9450e-06      0.9967   
  1.9460e-06      0.9963   
  1.9470e-06      0.9960   
  1.9480e-06      0.9957   
  1.9490e-06      0.9954   
  1.9500e-06      0.9951   
  1.9510e-06      0.9948   
  1.9520e-06      0.9945   
  1.9530e-06      0.9942   
  1.9540e-06      0.9939   
  1.9550e-06      0.9937   
  1.9560e-06      0.9935   
  1.9570e-06      0.9933   
  1.9580e-06      0.9930   
  1.9590e-06      0.9928   
  1.9600e-06      0.9926   
  1.9610e-06      0.9924   
  1.9620e-06      0.9922   
  1.9630e-06      0.9920   
  1.9640e-06      0.9919   
  1.9650e-06      0.9927   
  1.9660e-06      0.9936   
  1.9670e-06      0.9944   
  1.9680e-06      0.9953   
  1.9690e-06      0.9961   
  1.9700e-06      0.9970   
  1.9710e-06      0.9978   
  1.9720e-06      0.9986   
  1.9730e-06      0.9995   
  1.9740e-06      1.0003   
  1.9750e-06      1.0012   
  1.9760e-06      1.0020   
  1.9770e-06      1.0029   
  1.9780e-06      1.0037   
  1.9790e-06      1.0049   
  1.9800e-06      1.0078   
  1.9810e-06      1.0108   
  1.9820e-06      1.0137   
  1.9830e-06      1.0178   
  1.9840e-06      1.0219   
  1.9850e-06      1.0260   
  1.9860e-06      1.0298   
  1.9870e-06      1.0336   
  1.9880e-06      1.0373   
  1.9890e-06      1.0411   
  1.9900e-06      1.0448   
  1.9910e-06      1.0486   
  1.9920e-06      1.0523   
  1.9930e-06      1.0561   
  1.9940e-06      1.0591   
  1.9950e-06      1.0578   
  1.9960e-06      1.0566   
  1.9970e-06      1.0554   
  1.9980e-06      1.0541   
  1.9990e-06      1.0529   
  2.0000e-06      1.0517   
  2.0010e-06      1.0462   
  2.0020e-06      1.0375   
  2.0030e-06      1.0288   
  2.0040e-06      1.0201   
  2.0050e-06      1.0113   
  2.0060e-06      1.0026   
  2.0070e-06      0.9939   
  2.0080e-06      0.9852   
  2.0090e-06      0.9765   
  2.0100e-06      0.9640   
  2.0110e-06      0.9475   
  2.0120e-06      0.9310   
  2.0130e-06      0.9145   
  2.0140e-06      0.8980   
  2.0150e-06      0.8814   
  2.0160e-06      0.8649   
  2.0170e-06      0.8484   
  2.0180e-06      0.8312   
  2.0190e-06      0.8046   
  2.0200e-06      0.7779   
  2.0210e-06      0.7512   
  2.0220e-06      0.7246   
  2.0230e-06      0.6979   
  2.0240e-06      0.6713   
  2.0250e-06      0.6446   
  2.0260e-06      0.6180   
  2.0270e-06      0.5913   
  2.0280e-06      0.5646   
  2.0290e-06      0.5380   
  2.0300e-06      0.5113   
  2.0310e-06      0.4847   
  2.0320e-06      0.4580   
  2.0330e-06      0.4313   
  2.0340e-06      0.4047   
  2.0350e-06      0.3780   
  2.0360e-06      0.3574   
  2.0370e-06      0.3376   
  2.0380e-06      0.3178   
  2.0390e-06      0.2979   
  2.0400e-06      0.2781   
  2.0410e-06      0.2583   
  2.0420e-06      0.2384   
  2.0430e-06      0.2186   
  2.0440e-06      0.1987   
  2.0450e-06      0.1789   
  2.0460e-06      0.1591   
  2.0470e-06      0.1392   
  2.0480e-06      0.1194   
  2.0490e-06      0.1094   
  2.0500e-06      0.1026   
  2.0510e-06    9.591e-02  
  2.0520e-06    8.918e-02  
  2.0530e-06    8.245e-02  
  2.0540e-06    7.571e-02  
  2.0550e-06    6.898e-02  
  2.0560e-06    6.225e-02  
  2.0570e-06    5.552e-02  
  2.0580e-06    5.323e-02  
  2.0590e-06    5.263e-02  
  2.0600e-06    5.203e-02  
  2.0610e-06    5.143e-02  
  2.0620e-06    5.083e-02  
  2.0630e-06    5.023e-02  
  2.0640e-06    4.963e-02  
  2.0650e-06    4.903e-02  
  2.0660e-06    4.843e-02  
  2.0670e-06    4.783e-02  
  2.0680e-06    4.722e-02  
  2.0690e-06    4.662e-02  
  2.0700e-06    4.562e-02  
  2.0710e-06    4.449e-02  
  2.0720e-06    4.338e-02  
  2.0730e-06    4.236e-02  
  2.0740e-06    4.135e-02  
  2.0750e-06    4.037e-02  
  2.0760e-06    3.971e-02  
  2.0770e-06    3.906e-02  
  2.0780e-06    3.841e-02  
  2.0790e-06    3.775e-02  
  2.0800e-06    3.710e-02  
  2.0810e-06    3.645e-02  
  2.0820e-06    3.579e-02  
  2.0830e-06    3.514e-02  
  2.0840e-06    3.449e-02  
  2.0850e-06    3.383e-02  
  2.0860e-06    3.287e-02  
  2.0870e-06    3.190e-02  
  2.0880e-06    3.092e-02  
  2.0890e-06    2.995e-02  
  2.0900e-06    2.897e-02  
  2.0910e-06    2.800e-02  
  2.0920e-06    2.702e-02  
  2.0930e-06    2.605e-02  
  2.0940e-06    2.512e-02  
  2.0950e-06    2.422e-02  
  2.0960e-06    2.332e-02  
  2.0970e-06    2.242e-02  
  2.0980e-06    2.152e-02  
  2.0990e-06    2.062e-02  
  2.1000e-06    1.972e-02  
  2.1010e-06    1.882e-02  
  2.1020e-06    1.792e-02  
  2.1030e-06    1.702e-02  
  2.1040e-06    1.672e-02  
  2.1050e-06    1.659e-02  
  2.1060e-06    1.647e-02  
  2.1070e-06    1.635e-02  
  2.1080e-06    1.622e-02  
  2.1090e-06    1.610e-02  
  2.1100e-06    1.598e-02  
  2.1110e-06    1.585e-02  
  2.1120e-06    1.586e-02  
  2.1130e-06    1.593e-02  
  2.1140e-06    1.601e-02  
  2.1150e-06    1.609e-02  
  2.1160e-06    1.617e-02  
  2.1170e-06    1.624e-02  
  2.1180e-06    1.632e-02  
  2.1190e-06    1.640e-02  
  2.1200e-06    1.648e-02  
  2.1210e-06    1.655e-02  
  2.1220e-06    1.663e-02  
  2.1230e-06    1.671e-02  
  2.1240e-06    1.679e-02  
  2.1250e-06    1.662e-02  
  2.1260e-06    1.624e-02  
  2.1270e-06    1.587e-02  
  2.1280e-06    1.549e-02  
  2.1290e-06    1.511e-02  
  2.1300e-06    1.473e-02  
  2.1310e-06    1.435e-02  
  2.1320e-06    1.398e-02  
  2.1330e-06    1.374e-02  
  2.1340e-06    1.350e-02  
  2.1350e-06    1.327e-02  
  2.1360e-06    1.303e-02  
  2.1370e-06    1.280e-02  
  2.1380e-06    1.257e-02  
  2.1390e-06    1.233e-02  
  2.1400e-06    1.210e-02  
  2.1410e-06    1.186e-02  
  2.1420e-06    1.163e-02  
  2.1430e-06    1.145e-02  
  2.1440e-06    1.132e-02  
  2.1450e-06    1.118e-02  
  2.1460e-06    1.105e-02  
  2.1470e-06    1.092e-02  
  2.1480e-06    1.079e-02  
  2.1490e-06    1.065e-02  
  2.1500e-06    1.052e-02  
  2.1510e-06    1.039e-02  
  2.1520e-06    1.025e-02  
  2.1530e-06    1.012e-02  
  2.1540e-06    9.988e-03  
  2.1550e-06    9.855e-03  
  2.1560e-06    9.722e-03  
  2.1570e-06    9.590e-03  
  2.1580e-06    9.473e-03  
  2.1590e-06    9.404e-03  
  2.1600e-06    9.334e-03  
  2.1610e-06    9.265e-03  
  2.1620e-06    9.195e-03  
  2.1630e-06    9.126e-03  
  2.1640e-06    9.062e-03  
  2.1650e-06    9.029e-03  
  2.1660e-06    8.997e-03  
  2.1670e-06    8.965e-03  
  2.1680e-06    8.932e-03  
  2.1690e-06    8.900e-03  
  2.1700e-06    8.867e-03  
  2.1710e-06    8.835e-03  
  2.1720e-06    8.803e-03  
  2.1730e-06    8.771e-03  
  2.1740e-06    8.744e-03  
  2.1750e-06    8.718e-03  
  2.1760e-06    8.692e-03  
  2.1770e-06    8.665e-03  
  2.1780e-06    8.639e-03  
  2.1790e-06    8.612e-03  
  2.1800e-06    8.575e-03  
  2.1810e-06    8.525e-03  
  2.1820e-06    8.475e-03  
  2.1830e-06    8.425e-03  
  2.1840e-06    8.375e-03  
  2.1850e-06    8.325e-03  
  2.1860e-06    8.275e-03  
  2.1870e-06    8.225e-03  
  2.1880e-06    8.175e-03  
  2.1890e-06    8.137e-03  
  2.1900e-06    8.116e-03  
  2.1910e-06    8.095e-03  
  2.1920e-06    8.075e-03  
  2.1930e-06    8.054e-03  
  2.1940e-06    8.033e-03  
  2.1950e-06    8.012e-03  
  2.1960e-06    7.991e-03  
  2.1970e-06    7.971e-03  
  2.1980e-06    7.961e-03  
  2.1990e-06    7.952e-03  
  2.2000e-06    7.942e-03  
  2.2010e-06    7.933e-03  
  2.2020e-06    7.924e-03  
  2.2030e-06    7.914e-03  
  2.2040e-06    7.905e-03  
  2.2050e-06    7.896e-03  
  2.2060e-06    7.886e-03  
  2.2070e-06    7.877e-03  
  2.2080e-06    7.868e-03  
  2.2090e-06    7.858e-03  
  2.2100e-06    7.849e-03  
  2.2110e-06    7.840e-03  
  2.2120e-06    7.830e-03  
  2.2130e-06    7.821e-03  
  2.2140e-06    7.811e-03  
  2.2150e-06    7.805e-03  
  2.2160e-06    7.799e-03  
  2.2170e-06    7.792e-03  
  2.2180e-06    7.786e-03  
  2.2190e-06    7.780e-03  
  2.2200e-06    7.773e-03  
  2.2210e-06    7.767e-03  
  2.2220e-06    7.761e-03  
  2.2230e-06    7.755e-03  
  2.2240e-06    7.748e-03  
  2.2250e-06    7.742e-03  
  2.2260e-06    7.736e-03  
  2.2270e-06    7.729e-03  
  2.2280e-06    7.727e-03  
  2.2290e-06    7.725e-03  
  2.2300e-06    7.723e-03  
  2.2310e-06    7.722e-03  
  2.2320e-06    7.720e-03  
  2.2330e-06    7.718e-03  
  2.2340e-06    7.717e-03  
  2.2350e-06    7.715e-03  
  2.2360e-06    7.713e-03  
  2.2370e-06    7.709e-03  
  2.2380e-06    7.704e-03  
  2.2390e-06    7.698e-03  
  2.2400e-06    7.693e-03  
  2.2410e-06    7.688e-03  
  2.2420e-06    7.683e-03  
  2.2430e-06    7.677e-03  
  2.2440e-06    7.672e-03  
  2.2450e-06    7.667e-03  
  2.2460e-06    7.661e-03  
  2.2470e-06    7.656e-03  
  2.2480e-06    7.651e-03  
  2.2490e-06    7.649e-03  
  2.2500e-06    7.648e-03  
  2.2510e-06    7.648e-03  
  2.2520e-06    7.647e-03  
  2.2530e-06    7.647e-03  
  2.2540e-06    7.646e-03  
  2.2550e-06    7.645e-03  
  2.2560e-06    7.645e-03  
  2.2570e-06    7.644e-03  
  2.2580e-06    7.643e-03  
  2.2590e-06    7.643e-03  
  2.2600e-06    7.642e-03  
  2.2610e-06    7.641e-03  
  2.2620e-06    7.640e-03  
  2.2630e-06    7.639e-03  
  2.2640e-06    7.638e-03  
  2.2650e-06    7.637e-03  
  2.2660e-06    7.636e-03  
  2.2670e-06    7.635e-03  
  2.2680e-06    7.633e-03  
  2.2690e-06    7.632e-03  
  2.2700e-06    7.631e-03  
  2.2710e-06    7.630e-03  
  2.2720e-06    7.629e-03  
  2.2730e-06    7.628e-03  
  2.2740e-06    7.627e-03  
  2.2750e-06    7.626e-03  
  2.2760e-06    7.625e-03  
  2.2770e-06    7.624e-03  
  2.2780e-06    7.623e-03  
  2.2790e-06    7.622e-03  
  2.2800e-06    7.622e-03  
  2.2810e-06    7.621e-03  
  2.2820e-06    7.620e-03  
  2.2830e-06    7.620e-03  
  2.2840e-06    7.619e-03  
  2.2850e-06    7.618e-03  
  2.2860e-06    7.617e-03  
  2.2870e-06    7.617e-03  
  2.2880e-06    7.616e-03  
  2.2890e-06    7.616e-03  
  2.2900e-06    7.615e-03  
  2.2910e-06    7.614e-03  
  2.2920e-06    7.614e-03  
  2.2930e-06    7.613e-03  
  2.2940e-06    7.613e-03  
  2.2950e-06    7.612e-03  
  2.2960e-06    7.612e-03  
  2.2970e-06    7.611e-03  
  2.2980e-06    7.611e-03  
  2.2990e-06    7.610e-03  
  2.3000e-06    7.611e-03  
  2.3010e-06    7.611e-03  
  2.3020e-06    7.611e-03  
  2.3030e-06    7.612e-03  
  2.3040e-06    7.612e-03  
  2.3050e-06    7.613e-03  
  2.3060e-06    7.613e-03  
  2.3070e-06    7.613e-03  
  2.3080e-06    7.612e-03  
  2.3090e-06    7.612e-03  
  2.3100e-06    7.611e-03  
  2.3110e-06    7.611e-03  
  2.3120e-06    7.611e-03  
  2.3130e-06    7.610e-03  
  2.3140e-06    7.610e-03  
  2.3150e-06    7.609e-03  
  2.3160e-06    7.609e-03  
  2.3170e-06    7.608e-03  
  2.3180e-06    7.608e-03  
  2.3190e-06    7.607e-03  
  2.3200e-06    7.607e-03  
  2.3210e-06    7.607e-03  
  2.3220e-06    7.606e-03  
  2.3230e-06    7.606e-03  
  2.3240e-06    7.605e-03  
  2.3250e-06    7.605e-03  
  2.3260e-06    7.604e-03  
  2.3270e-06    7.604e-03  
  2.3280e-06    7.603e-03  
  2.3290e-06    7.603e-03  
  2.3300e-06    7.604e-03  
  2.3310e-06    7.605e-03  
  2.3320e-06    7.605e-03  
  2.3330e-06    7.606e-03  
  2.3340e-06    7.607e-03  
  2.3350e-06    7.608e-03  
  2.3360e-06    7.609e-03  
  2.3370e-06    7.610e-03  
  2.3380e-06    7.610e-03  
  2.3390e-06    7.611e-03  
  2.3400e-06    7.612e-03  
  2.3410e-06    7.613e-03  
  2.3420e-06    7.614e-03  
  2.3430e-06    7.610e-03  
  2.3440e-06    7.606e-03  
  2.3450e-06    7.602e-03  
  2.3460e-06    7.598e-03  
  2.3470e-06    7.594e-03  
  2.3480e-06    7.590e-03  
  2.3490e-06    7.586e-03  
  2.3500e-06    7.582e-03  
  2.3510e-06    7.581e-03  
  2.3520e-06    7.581e-03  
  2.3530e-06    7.581e-03  
  2.3540e-06    7.581e-03  
  2.3550e-06    7.581e-03  
  2.3560e-06    7.581e-03  
  2.3570e-06    7.581e-03  
  2.3580e-06    7.580e-03  
  2.3590e-06    7.580e-03  
  2.3600e-06    7.580e-03  
  2.3610e-06    7.580e-03  
  2.3620e-06    7.580e-03  
  2.3630e-06    7.580e-03  
  2.3640e-06    7.584e-03  
  2.3650e-06    7.592e-03  
  2.3660e-06    7.600e-03  
  2.3670e-06    7.608e-03  
  2.3680e-06    7.616e-03  
  2.3690e-06    7.625e-03  
  2.3700e-06    7.633e-03  
  2.3710e-06    7.641e-03  
  2.3720e-06    7.644e-03  
  2.3730e-06    7.642e-03  
  2.3740e-06    7.641e-03  
  2.3750e-06    7.639e-03  
  2.3760e-06    7.637e-03  
  2.3770e-06    7.636e-03  
  2.3780e-06    7.634e-03  
  2.3790e-06    7.632e-03  
  2.3800e-06    7.631e-03  
  2.3810e-06    7.629e-03  
  2.3820e-06    7.628e-03  
  2.3830e-06    7.634e-03  
  2.3840e-06    7.640e-03  
  2.3850e-06    7.646e-03  
  2.3860e-06    7.652e-03  
  2.3870e-06    7.657e-03  
  2.3880e-06    7.663e-03  
  2.3890e-06    7.669e-03  
  2.3900e-06    7.675e-03  
  2.3910e-06    7.681e-03  
  2.3920e-06    7.686e-03  
  2.3930e-06    7.692e-03  
  2.3940e-06    7.698e-03  
  2.3950e-06    7.704e-03  
  2.3960e-06    7.710e-03  
  2.3970e-06    7.719e-03  
  2.3980e-06    7.733e-03  
  2.3990e-06    7.747e-03  
  2.4000e-06    7.761e-03  
  2.4010e-06    7.775e-03  
  2.4020e-06    7.789e-03  
  2.4030e-06    7.803e-03  
  2.4040e-06    7.817e-03  
  2.4050e-06    7.831e-03  
  2.4060e-06    7.783e-03  
  2.4070e-06    7.703e-03  
  2.4080e-06    7.624e-03  
  2.4090e-06    7.544e-03  
  2.4100e-06    7.464e-03  
  2.4110e-06    7.384e-03  
  2.4120e-06    7.304e-03  
  2.4130e-06    7.224e-03  
  2.4140e-06    7.144e-03  
  2.4150e-06    7.064e-03  
  2.4160e-06    6.993e-03  
  2.4170e-06    6.953e-03  
  2.4180e-06    6.913e-03  
  2.4190e-06    6.873e-03  
  2.4200e-06    6.833e-03  
  2.4210e-06    6.794e-03  
  2.4220e-06    6.754e-03  
  2.4230e-06    6.714e-03  
  2.4240e-06    6.674e-03  
  2.4250e-06    6.649e-03  
  2.4260e-06    6.705e-03  
  2.4270e-06    6.761e-03  
  2.4280e-06    6.817e-03  
  2.4290e-06    6.873e-03  
  2.4300e-06    6.930e-03  
  2.4310e-06    6.986e-03  
  2.4320e-06    7.042e-03  
  2.4330e-06    7.098e-03  
  2.4340e-06    7.154e-03  
  2.4350e-06    7.210e-03  
  2.4360e-06    7.255e-03  
  2.4370e-06    7.273e-03  
  2.4380e-06    7.290e-03  
  2.4390e-06    7.247e-03  
  2.4400e-06    7.188e-03  
  2.4410e-06    7.134e-03  
  2.4420e-06    7.324e-03  
  2.4430e-06    7.514e-03  
  2.4440e-06    7.704e-03  
  2.4450e-06    7.894e-03  
  2.4460e-06    8.084e-03  
  2.4470e-06    8.274e-03  
  2.4480e-06    8.464e-03  
  2.4490e-06    8.654e-03  
  2.4500e-06    8.878e-03  
  2.4510e-06    9.396e-03  
  2.4520e-06    9.915e-03  
  2.4530e-06    1.043e-02  
  2.4540e-06    1.095e-02  
  2.4550e-06    1.147e-02  
  2.4560e-06    1.199e-02  
  2.4570e-06    1.251e-02  
  2.4580e-06    1.306e-02  
  2.4590e-06    1.363e-02  
  2.4600e-06    1.421e-02  
  2.4610e-06    1.478e-02  
  2.4620e-06    1.535e-02  
  2.4630e-06    1.593e-02  
  2.4640e-06    1.650e-02  
  2.4650e-06    1.708e-02  
  2.4660e-06    1.739e-02  
  2.4670e-06    1.627e-02  
  2.4680e-06    1.516e-02  
  2.4690e-06    1.404e-02  
  2.4700e-06    1.293e-02  
  2.4710e-06    1.181e-02  
  2.4720e-06    1.070e-02  
  2.4730e-06    9.585e-03  
  2.4740e-06    8.470e-03  
  2.4750e-06    7.356e-03  
  2.4760e-06    6.241e-03  
  2.4770e-06    5.127e-03  
  2.4780e-06    2.974e-03  
  2.4790e-06    6.828e-04  
  2.4800e-06   -1.608e-03  
  2.4810e-06   -3.899e-03  
  2.4820e-06   -6.189e-03  
  2.4830e-06   -8.480e-03  
  2.4840e-06   -1.077e-02  
  2.4850e-06   -1.294e-02  
  2.4860e-06   -1.505e-02  
  2.4870e-06   -1.715e-02  
  2.4880e-06   -1.926e-02  
  2.4890e-06   -2.137e-02  
  2.4900e-06   -2.348e-02  
  2.4910e-06   -2.559e-02  
  2.4920e-06   -2.769e-02  
  2.4930e-06   -2.980e-02  
  2.4940e-06   -3.191e-02  
  2.4950e-06   -3.402e-02  
  2.4960e-06   -3.591e-02  
  2.4970e-06   -3.765e-02  
  2.4980e-06   -3.939e-02  
  2.4990e-06   -4.113e-02  
  2.5000e-06   -4.287e-02  
  2.5010e-06   -4.461e-02  
  2.5020e-06   -4.636e-02  
  2.5030e-06   -4.810e-02  
  2.5040e-06   -4.984e-02  
  2.5050e-06   -5.158e-02  
  2.5060e-06   -5.332e-02  
  2.5070e-06   -5.498e-02  
  2.5080e-06   -4.256e-02  
  2.5090e-06   -3.014e-02  
  2.5100e-06   -1.772e-02  
  2.5110e-06   -5.306e-03  
  2.5120e-06    7.112e-03  
  2.5130e-06    1.953e-02  
  2.5140e-06    3.195e-02  
  2.5150e-06    4.437e-02  
  2.5160e-06    5.679e-02  
  2.5170e-06    6.920e-02  
  2.5180e-06    8.162e-02  
  2.5190e-06    9.404e-02  
  2.5200e-06      0.1065   
  2.5210e-06      0.1270   
  2.5220e-06      0.1534   
  2.5230e-06      0.1791   
  2.5240e-06      0.2040   
  2.5250e-06      0.2287   
  2.5260e-06      0.2516   
  2.5270e-06      0.2745   
  2.5280e-06      0.2974   
  2.5290e-06      0.3203   
  2.5300e-06      0.3432   
  2.5310e-06      0.3661   
  2.5320e-06      0.3888   
  2.5330e-06      0.4076   
  2.5340e-06      0.4263   
  2.5350e-06      0.4450   
  2.5360e-06      0.4637   
  2.5370e-06      0.4825   
  2.5380e-06      0.5012   
  2.5390e-06      0.5199   
  2.5400e-06      0.5385   
  2.5410e-06      0.5518   
  2.5420e-06      0.5652   
  2.5430e-06      0.5786   
  2.5440e-06      0.5919   
  2.5450e-06      0.6053   
  2.5460e-06      0.6187   
  2.5470e-06      0.6320   
  2.5480e-06      0.6454   
  2.5490e-06      0.6588   
  2.5500e-06      0.6696   
  2.5510e-06      0.6798   
  2.5520e-06      0.6900   
  2.5530e-06      0.7003   
  2.5540e-06      0.7105   
  2.5550e-06      0.7208   
  2.5560e-06      0.7310   
  2.5570e-06      0.7412   
  2.5580e-06      0.7515   
  2.5590e-06      0.7617   
  2.5600e-06      0.7699   
  2.5610e-06      0.7755   
  2.5620e-06      0.7812   
  2.5630e-06      0.7869   
[...]
  9.3640e-06    7.620e-03  
  9.3650e-06    7.619e-03  
  9.3660e-06    7.618e-03  
  9.3670e-06    7.617e-03  
  9.3680e-06    7.616e-03  
  9.3690e-06    7.616e-03  
  9.3700e-06    7.615e-03  
  9.3710e-06    7.614e-03  
  9.3720e-06    7.613e-03  
  9.3730e-06    7.613e-03  
  9.3740e-06    7.612e-03  
  9.3750e-06    7.611e-03  
  9.3760e-06    7.610e-03  
  9.3770e-06    7.611e-03  
  9.3780e-06    7.611e-03  
  9.3790e-06    7.611e-03  
  9.3800e-06    7.611e-03  
  9.3810e-06    7.611e-03  
  9.3820e-06    7.611e-03  
  9.3830e-06    7.611e-03  
  9.3840e-06    7.611e-03  
  9.3850e-06    7.612e-03  
  9.3860e-06    7.612e-03  
  9.3870e-06    7.612e-03  
  9.3880e-06    7.612e-03  
  9.3890e-06    7.612e-03  
  9.3900e-06    7.611e-03  
  9.3910e-06    7.611e-03  
  9.3920e-06    7.611e-03  
  9.3930e-06    7.611e-03  
  9.3940e-06    7.610e-03  
  9.3950e-06    7.610e-03  
  9.3960e-06    7.610e-03  
  9.3970e-06    7.610e-03  
  9.3980e-06    7.609e-03  
  9.3990e-06    7.608e-03  
  9.4000e-06    7.607e-03  
  9.4010e-06    7.605e-03  
  9.4020e-06    7.604e-03  
  9.4030e-06    7.603e-03  
  9.4040e-06    7.604e-03  
  9.4050e-06    7.605e-03  
  9.4060e-06    7.606e-03  
  9.4070e-06    7.606e-03  
  9.4080e-06    7.607e-03  
  9.4090e-06    7.608e-03  
  9.4100e-06    7.609e-03  
  9.4110e-06    7.610e-03  
  9.4120e-06    7.610e-03  
  9.4130e-06    7.610e-03  
  9.4140e-06    7.610e-03  
  9.4150e-06    7.610e-03  
  9.4160e-06    7.610e-03  
  9.4170e-06    7.610e-03  
  9.4180e-06    7.610e-03  
  9.4190e-06    7.609e-03  
  9.4200e-06    7.608e-03  
  9.4210e-06    7.606e-03  
  9.4220e-06    7.605e-03  
  9.4230e-06    7.604e-03  
  9.4240e-06    7.602e-03  
  9.4250e-06    7.601e-03  
  9.4260e-06    7.599e-03  
  9.4270e-06    7.598e-03  
  9.4280e-06    7.595e-03  
  9.4290e-06    7.592e-03  
  9.4300e-06    7.589e-03  
  9.4310e-06    7.586e-03  
  9.4320e-06    7.583e-03  
  9.4330e-06    7.580e-03  
  9.4340e-06    7.577e-03  
  9.4350e-06    7.574e-03  
  9.4360e-06    7.571e-03  
  9.4370e-06    7.568e-03  
  9.4380e-06    7.565e-03  
  9.4390e-06    7.565e-03  
  9.4400e-06    7.571e-03  
  9.4410e-06    7.578e-03  
  9.4420e-06    7.585e-03  
  9.4430e-06    7.592e-03  
  9.4440e-06    7.599e-03  
  9.4450e-06    7.606e-03  
  9.4460e-06    7.612e-03  
  9.4470e-06    7.616e-03  
  9.4480e-06    7.619e-03  
  9.4490e-06    7.623e-03  
  9.4500e-06    7.626e-03  
  9.4510e-06    7.630e-03  
  9.4520e-06    7.633e-03  
  9.4530e-06    7.637e-03  
  9.4540e-06    7.640e-03  
  9.4550e-06    7.644e-03  
  9.4560e-06    7.647e-03  
  9.4570e-06    7.651e-03  
  9.4580e-06    7.648e-03  
  9.4590e-06    7.645e-03  
  9.4600e-06    7.642e-03  
  9.4610e-06    7.639e-03  
  9.4620e-06    7.636e-03  
  9.4630e-06    7.633e-03  
  9.4640e-06    7.630e-03  
  9.4650e-06    7.627e-03  
  9.4660e-06    7.624e-03  
  9.4670e-06    7.621e-03  
  9.4680e-06    7.618e-03  
  9.4690e-06    7.623e-03  
  9.4700e-06    7.640e-03  
  9.4710e-06    7.657e-03  
  9.4720e-06    7.674e-03  
  9.4730e-06    7.691e-03  
  9.4740e-06    7.708e-03  
  9.4750e-06    7.725e-03  
  9.4760e-06    7.742e-03  
  9.4770e-06    7.760e-03  
  9.4780e-06    7.777e-03  
  9.4790e-06    7.794e-03  
  9.4800e-06    7.811e-03  
  9.4810e-06    7.828e-03  
  9.4820e-06    7.844e-03  
  9.4830e-06    7.804e-03  
  9.4840e-06    7.763e-03  
  9.4850e-06    7.723e-03  
  9.4860e-06    7.683e-03  
  9.4870e-06    7.642e-03  
  9.4880e-06    7.602e-03  
  9.4890e-06    7.562e-03  
  9.4900e-06    7.520e-03  
  9.4910e-06    7.452e-03  
  9.4920e-06    7.384e-03  
  9.4930e-06    7.316e-03  
  9.4940e-06    7.248e-03  
  9.4950e-06    7.180e-03  
  9.4960e-06    7.112e-03  
  9.4970e-06    7.044e-03  
  9.4980e-06    6.976e-03  
  9.4990e-06    6.908e-03  
  9.5000e-06    6.840e-03  
  9.5010e-06    6.771e-03  
  9.5020e-06    6.703e-03  
  9.5030e-06    6.635e-03  
  9.5040e-06    6.633e-03  
  9.5050e-06    6.675e-03  
  9.5060e-06    6.717e-03  
  9.5070e-06    6.758e-03  
  9.5080e-06    6.800e-03  
  9.5090e-06    6.842e-03  
  9.5100e-06    6.883e-03  
  9.5110e-06    6.925e-03  
  9.5120e-06    6.964e-03  
  9.5130e-06    7.000e-03  
  9.5140e-06    7.037e-03  
  9.5150e-06    7.074e-03  
  9.5160e-06    7.111e-03  
  9.5170e-06    7.148e-03  
  9.5180e-06    7.185e-03  
  9.5190e-06    7.222e-03  
  9.5200e-06    7.259e-03  
  9.5210e-06    7.296e-03  
  9.5220e-06    7.390e-03  
  9.5230e-06    7.632e-03  
  9.5240e-06    7.873e-03  
  9.5250e-06    8.115e-03  
  9.5260e-06    8.357e-03  
  9.5270e-06    8.599e-03  
  9.5280e-06    8.841e-03  
  9.5290e-06    9.083e-03  
  9.5300e-06    9.325e-03  
  9.5310e-06    9.567e-03  
  9.5320e-06    9.809e-03  
  9.5330e-06    1.005e-02  
  9.5340e-06    1.029e-02  
  9.5350e-06    1.053e-02  
  9.5360e-06    1.078e-02  
  9.5370e-06    1.129e-02  
  9.5380e-06    1.197e-02  
  9.5390e-06    1.265e-02  
  9.5400e-06    1.333e-02  
  9.5410e-06    1.401e-02  
  9.5420e-06    1.470e-02  
  9.5430e-06    1.538e-02  
  9.5440e-06    1.606e-02  
  9.5450e-06    1.674e-02  
  9.5460e-06    1.630e-02  
  9.5470e-06    1.556e-02  
  9.5480e-06    1.482e-02  
  9.5490e-06    1.408e-02  
  9.5500e-06    1.335e-02  
  9.5510e-06    1.261e-02  
  9.5520e-06    1.187e-02  
  9.5530e-06    1.114e-02  
  9.5540e-06    1.040e-02  
  9.5550e-06    9.663e-03  
  9.5560e-06    8.415e-03  
  9.5570e-06    6.231e-03  
  9.5580e-06    4.047e-03  
  9.5590e-06    1.864e-03  
  9.5600e-06   -3.198e-04  
  9.5610e-06   -2.503e-03  
  9.5620e-06   -4.687e-03  
  9.5630e-06   -6.871e-03  
  9.5640e-06   -9.054e-03  
  9.5650e-06   -1.122e-02  
  9.5660e-06   -1.336e-02  
  9.5670e-06   -1.550e-02  
  9.5680e-06   -1.763e-02  
  9.5690e-06   -1.977e-02  
  9.5700e-06   -2.190e-02  
  9.5710e-06   -2.404e-02  
  9.5720e-06   -2.617e-02  
  9.5730e-06   -2.831e-02  
  9.5740e-06   -3.044e-02  
  9.5750e-06   -3.258e-02  
  9.5760e-06   -3.482e-02  
  9.5770e-06   -3.719e-02  
  9.5780e-06   -3.957e-02  
  9.5790e-06   -4.273e-02  
  9.5800e-06   -4.595e-02  
  9.5810e-06   -4.863e-02  
  9.5820e-06   -4.853e-02  
  9.5830e-06   -4.842e-02  
  9.5840e-06   -4.832e-02  
  9.5850e-06   -4.821e-02  
  9.5860e-06   -4.811e-02  
  9.5870e-06   -4.800e-02  
  9.5880e-06   -4.790e-02  
  9.5890e-06   -4.779e-02  
  9.5900e-06   -4.537e-02  
  9.5910e-06   -3.571e-02  
  9.5920e-06   -2.606e-02  
  9.5930e-06   -1.640e-02  
  9.5940e-06   -6.745e-03  
  9.5950e-06    2.911e-03  
  9.5960e-06    1.257e-02  
  9.5970e-06    2.222e-02  
  9.5980e-06    4.265e-02  
  9.5990e-06    6.625e-02  
  9.6000e-06    8.985e-02  
  9.6010e-06      0.1134   
  9.6020e-06      0.1370   
  9.6030e-06      0.1606   
  9.6040e-06      0.1842   
  9.6050e-06      0.2078   
  9.6060e-06      0.2309   
  9.6070e-06      0.2526   
  9.6080e-06      0.2743   
  9.6090e-06      0.2960   
  9.6100e-06      0.3178   
  9.6110e-06      0.3395   
  9.6120e-06      0.3612   
  9.6130e-06      0.3829   
  9.6140e-06      0.4046   
  9.6150e-06      0.4264   
  9.6160e-06      0.4481   
  9.6170e-06      0.4697   
  9.6180e-06      0.4862   
  9.6190e-06      0.5027   
  9.6200e-06      0.5192   
  9.6210e-06      0.5357   
  9.6220e-06      0.5523   
  9.6230e-06      0.5688   
  9.6240e-06      0.5853   
  9.6250e-06      0.5977   
  9.6260e-06      0.6092   
  9.6270e-06      0.6206   
  9.6280e-06      0.6321   
  9.6290e-06      0.6435   
  9.6300e-06      0.6550   
  9.6310e-06      0.6665   
  9.6320e-06      0.6779   
  9.6330e-06      0.6894   
  9.6340e-06      0.7008   
  9.6350e-06      0.7123   
  9.6360e-06      0.7219   
  9.6370e-06      0.7308   
  9.6380e-06      0.7397   
  9.6390e-06      0.7485   
  9.6400e-06      0.7574   
  9.6410e-06      0.7663   
  9.6420e-06      0.7752   
  9.6430e-06      0.7840   
  9.6440e-06      0.7929   
  9.6450e-06      0.8018   
  9.6460e-06      0.8107   
  9.6470e-06      0.8187   
  9.6480e-06      0.8215   
  9.6490e-06      0.8244   
  9.6500e-06      0.8273   
  9.6510e-06      0.8302   
  9.6520e-06      0.8330   
  9.6530e-06      0.8359   
  9.6540e-06      0.8388   
  9.6550e-06      0.8417   
  9.6560e-06      0.8445   
  9.6570e-06      0.8474   
  9.6580e-06      0.8503   
  9.6590e-06      0.8532   
  9.6600e-06      0.8561   
  9.6610e-06      0.8587   
  9.6620e-06      0.8613   
  9.6630e-06      0.8640   
  9.6640e-06      0.8667   
  9.6650e-06      0.8697   
  9.6660e-06      0.8734   
  9.6670e-06      0.8771   
  9.6680e-06      0.8809   
  9.6690e-06      0.8846   
  9.6700e-06      0.8883   
  9.6710e-06      0.8920   
  9.6720e-06      0.8958   
  9.6730e-06      0.8995   
  9.6740e-06      0.9033   
  9.6750e-06      0.9070   
  9.6760e-06      0.9108   
  9.6770e-06      0.9146   
  9.6780e-06      0.9183   
  9.6790e-06      0.9221   
  9.6800e-06      0.9256   
  9.6810e-06      0.9282   
  9.6820e-06      0.9308   
  9.6830e-06      0.9334   
  9.6840e-06      0.9359   
  9.6850e-06      0.9385   
  9.6860e-06      0.9411   
  9.6870e-06      0.9437   
  9.6880e-06      0.9463   
  9.6890e-06      0.9488   
  9.6900e-06      0.9506   
  9.6910e-06      0.9523   
  9.6920e-06      0.9540   
  9.6930e-06      0.9557   
  9.6940e-06      0.9574   
  9.6950e-06      0.9592   
  9.6960e-06      0.9609   
  9.6970e-06      0.9626   
  9.6980e-06      0.9643   
  9.6990e-06      0.9660   
  9.7000e-06      0.9673   
  9.7010e-06      0.9683   
  9.7020e-06      0.9693   
  9.7030e-06      0.9702   
  9.7040e-06      0.9712   
  9.7050e-06      0.9722   
  9.7060e-06      0.9732   
  9.7070e-06      0.9742   
  9.7080e-06      0.9752   
  9.7090e-06      0.9762   
  9.7100e-06      0.9771   
  9.7110e-06      0.9781   
  9.7120e-06      0.9791   
  9.7130e-06      0.9801   
  9.7140e-06      0.9808   
  9.7150e-06      0.9814   
  9.7160e-06      0.9820   
  9.7170e-06      0.9826   
  9.7180e-06      0.9832   
  9.7190e-06      0.9838   
  9.7200e-06      0.9844   
  9.7210e-06      0.9850   
  9.7220e-06      0.9856   
  9.7230e-06      0.9861   
  9.7240e-06      0.9867   
  9.7250e-06      0.9872   
  9.7260e-06      0.9878   
  9.7270e-06      0.9883   
  9.7280e-06      0.9889   
  9.7290e-06      0.9894   
  9.7300e-06      0.9900   
  9.7310e-06      0.9905   
  9.7320e-06      0.9911   
  9.7330e-06      0.9915   
  9.7340e-06      0.9918   
  9.7350e-06      0.9921   
  9.7360e-06      0.9924   
  9.7370e-06      0.9927   
  9.7380e-06      0.9930   
  9.7390e-06      0.9933   
  9.7400e-06      0.9936   
  9.7410e-06      0.9939   
  9.7420e-06      0.9942   
  9.7430e-06      0.9944   
  9.7440e-06      0.9945   
  9.7450e-06      0.9947   
  9.7460e-06      0.9948   
  9.7470e-06      0.9950   
  9.7480e-06      0.9951   
  9.7490e-06      0.9953   
  9.7500e-06      0.9954   
  9.7510e-06      0.9955   
  9.7520e-06      0.9957   
  9.7530e-06      0.9958   
  9.7540e-06      0.9959   
  9.7550e-06      0.9961   
  9.7560e-06      0.9962   
  9.7570e-06      0.9963   
  9.7580e-06      0.9965   
  9.7590e-06      0.9966   
  9.7600e-06      0.9967   
  9.7610e-06      0.9968   
  9.7620e-06      0.9969   
  9.7630e-06      0.9970   
  9.7640e-06      0.9971   
  9.7650e-06      0.9972   
  9.7660e-06      0.9973   
  9.7670e-06      0.9974   
  9.7680e-06      0.9974   
  9.7690e-06      0.9975   
  9.7700e-06      0.9976   
  9.7710e-06      0.9977   
  9.7720e-06      0.9977   
  9.7730e-06      0.9978   
  9.7740e-06      0.9979   
  9.7750e-06      0.9979   
  9.7760e-06      0.9980   
  9.7770e-06      0.9981   
  9.7780e-06      0.9982   
  9.7790e-06      0.9982   
  9.7800e-06      0.9983   
  9.7810e-06      0.9984   
  9.7820e-06      0.9984   
  9.7830e-06      0.9985   
  9.7840e-06      0.9985   
  9.7850e-06      0.9986   
  9.7860e-06      0.9987   
  9.7870e-06      0.9987   
  9.7880e-06      0.9988   
  9.7890e-06      0.9988   
  9.7900e-06      0.9988   
  9.7910e-06      0.9989   
  9.7920e-06      0.9989   
  9.7930e-06      0.9989   
  9.7940e-06      0.9989   
  9.7950e-06      0.9990   
  9.7960e-06      0.9990   
  9.7970e-06      0.9990   
  9.7980e-06      0.9991   
  9.7990e-06      0.9991   
  9.8000e-06      0.9991   
  9.8010e-06      0.9992   
  9.8020e-06      0.9992   
  9.8030e-06      0.9992   
  9.8040e-06      0.9992   
  9.8050e-06      0.9992   
  9.8060e-06      0.9993   
  9.8070e-06      0.9993   
  9.8080e-06      0.9993   
  9.8090e-06      0.9993   
  9.8100e-06      0.9993   
  9.8110e-06      0.9993   
  9.8120e-06      0.9994   
  9.8130e-06      0.9994   
  9.8140e-06      0.9994   
  9.8150e-06      0.9994   
  9.8160e-06      0.9994   
  9.8170e-06      0.9995   
  9.8180e-06      0.9995   
  9.8190e-06      0.9995   
  9.8200e-06      0.9995   
  9.8210e-06      0.9995   
  9.8220e-06      0.9995   
  9.8230e-06      0.9995   
  9.8240e-06      0.9995   
  9.8250e-06      0.9996   
  9.8260e-06      0.9996   
  9.8270e-06      0.9996   
  9.8280e-06      0.9996   
  9.8290e-06      0.9996   
  9.8300e-06      0.9996   
  9.8310e-06      0.9996   
  9.8320e-06      0.9996   
  9.8330e-06      0.9996   
  9.8340e-06      0.9996   
  9.8350e-06      0.9997   
  9.8360e-06      0.9997   
  9.8370e-06      0.9997   
  9.8380e-06      0.9997   
  9.8390e-06      0.9997   
  9.8400e-06      0.9997   
  9.8410e-06      0.9997   
  9.8420e-06      0.9997   
  9.8430e-06      0.9997   
  9.8440e-06      0.9997   
  9.8450e-06      0.9997   
  9.8460e-06      0.9997   
  9.8470e-06      0.9997   
  9.8480e-06      0.9997   
  9.8490e-06      0.9997   
  9.8500e-06      0.9997   
  9.8510e-06      0.9997   
  9.8520e-06      0.9997   
  9.8530e-06      0.9997   
  9.8540e-06      0.9998   
  9.8550e-06      0.9998   
  9.8560e-06      0.9998   
  9.8570e-06      0.9998   
  9.8580e-06      0.9998   
  9.8590e-06      0.9998   
  9.8600e-06      0.9998   
  9.8610e-06      0.9998   
  9.8620e-06      0.9998   
  9.8630e-06      0.9998   
  9.8640e-06      0.9998   
  9.8650e-06      0.9998   
  9.8660e-06      0.9998   
  9.8670e-06      0.9998   
  9.8680e-06      0.9998   
  9.8690e-06      0.9998   
  9.8700e-06      0.9998   
  9.8710e-06      0.9998   
  9.8720e-06      0.9998   
  9.8730e-06      0.9998   
  9.8740e-06      0.9998   
  9.8750e-06      0.9998   
  9.8760e-06      0.9998   
  9.8770e-06      0.9998   
  9.8780e-06      0.9998   
  9.8790e-06      0.9998   
  9.8800e-06      0.9998   
  9.8810e-06      0.9998   
  9.8820e-06      0.9998   
  9.8830e-06      0.9998   
  9.8840e-06      0.9998   
  9.8850e-06      0.9998   
  9.8860e-06      0.9998   
  9.8870e-06      0.9998   
  9.8880e-06      0.9998   
  9.8890e-06      0.9998   
  9.8900e-06      0.9998   
  9.8910e-06      0.9998   
  9.8920e-06      0.9998   
  9.8930e-06      0.9998   
  9.8940e-06      0.9998   
  9.8950e-06      0.9998   
  9.8960e-06      0.9998   
  9.8970e-06      0.9998   
  9.8980e-06      0.9998   
  9.8990e-06      0.9998   
  9.9000e-06      0.9998   
  9.9010e-06      0.9998   
  9.9020e-06      0.9998   
  9.9030e-06      0.9998   
  9.9040e-06      0.9998   
  9.9050e-06      0.9998   
  9.9060e-06      0.9998   
  9.9070e-06      0.9998   
  9.9080e-06      0.9998   
  9.9090e-06      0.9998   
  9.9100e-06      0.9998   
  9.9110e-06      0.9998   
  9.9120e-06      0.9998   
  9.9130e-06      0.9998   
  9.9140e-06      0.9998   
  9.9150e-06      0.9998   
  9.9160e-06      0.9998   
  9.9170e-06      0.9998   
  9.9180e-06      0.9998   
  9.9190e-06      0.9998   
  9.9200e-06      0.9998   
  9.9210e-06      0.9998   
  9.9220e-06      0.9998   
  9.9230e-06      0.9998   
  9.9240e-06      0.9998   
  9.9250e-06      0.9998   
  9.9260e-06      0.9998   
  9.9270e-06      0.9998   
  9.9280e-06      0.9998   
  9.9290e-06      0.9998   
  9.9300e-06      0.9998   
  9.9310e-06      0.9998   
  9.9320e-06      0.9998   
  9.9330e-06      0.9998   
  9.9340e-06      0.9998   
  9.9350e-06      0.9998   
  9.9360e-06      0.9998   
  9.9370e-06      0.9998   
  9.9380e-06      0.9998   
  9.9390e-06      0.9998   
  9.9400e-06      0.9998   
  9.9410e-06      0.9998   
  9.9420e-06      0.9998   
  9.9430e-06      0.9998   
  9.9440e-06      0.9999   
  9.9450e-06      0.9999   
  9.9460e-06      0.9999   
  9.9470e-06      0.9999   
  9.9480e-06      0.9999   
  9.9490e-06      0.9999   
  9.9500e-06      0.9999   
  9.9510e-06      0.9999   
  9.9520e-06      0.9999   
  9.9530e-06      0.9999   
  9.9540e-06      0.9999   
  9.9550e-06      0.9999   
  9.9560e-06      0.9999   
  9.9570e-06      0.9999   
  9.9580e-06      0.9999   
  9.9590e-06      0.9999   
  9.9600e-06      0.9998   
  9.9610e-06      0.9998   
  9.9620e-06      0.9998   
  9.9630e-06      0.9998   
  9.9640e-06      0.9998   
  9.9650e-06      0.9998   
  9.9660e-06      0.9998   
  9.9670e-06      0.9998   
  9.9680e-06      0.9998   
  9.9690e-06      0.9998   
  9.9700e-06      0.9997   
  9.9710e-06      0.9997   
  9.9720e-06      0.9997   
  9.9730e-06      0.9997   
  9.9740e-06      0.9997   
  9.9750e-06      0.9997   
  9.9760e-06      0.9997   
  9.9770e-06      0.9997   
  9.9780e-06      0.9997   
  9.9790e-06      0.9997   
  9.9800e-06      0.9997   
  9.9810e-06      0.9997   
  9.9820e-06      0.9997   
  9.9830e-06      0.9997   
  9.9840e-06      0.9998   
  9.9850e-06      0.9998   
  9.9860e-06      0.9998   
  9.9870e-06      0.9998   
  9.9880e-06      0.9998   
  9.9890e-06      0.9998   
  9.9900e-06      0.9998   
  9.9910e-06      0.9998   
  9.9920e-06      0.9998   
  9.9930e-06      0.9999   
  9.9940e-06      0.9999   
  9.9950e-06      0.9999   
  9.9960e-06      0.9999   
  9.9970e-06      0.9999   
  9.9980e-06      0.9999   
  9.9990e-06      0.9999   
  1.0000e-05      0.9999   
y
-----------------------------------------------
 t1= 8.2748e-09
 t2= 3.0421e-06
 period= 1.0113e-06
 delay_per_stage= 2.9744e-08

          ***** job concluded
1****** HSPICE -- G-2012.06 32-BIT (May 27 2012) RHEL32 ******                  
 ******  
 *sample netlist for bsim6

  ******  job statistics summary tnom=  25.000 temp=  25.000 *****
  
  
 ******  Machine Information  ******
 CPU:
 model name	: AMD Opteron(tm) Processor 248
 cpu MHz	: 2200.048
  
 OS:
 Linux version 2.6.9-22.EL (bhcompile@crowe.devel.redhat.com) (gcc version 3.4.4 20050721 (Red Hat 3.4.4-2)) #1 Mon Sep 19 17:49:49 EDT 2005


  ******  HSPICE Threads Information  ******

  Command Line Threads Count :     1
  Available CPU Count        :     1
  Actual Threads Count       :     1


  ******  Circuit Statistics  ******
  # nodes       =     359 # elements   =      35
  # resistors   =       0 # capacitors =       0 # inductors   =       0
  # mutual_inds =       0 # vccs       =       0 # vcvs        =       0
  # cccs        =       0 # ccvs       =       0 # volt_srcs   =       1
  # curr_srcs   =       0 # diodes     =       0 # bjts        =       0
  # jfets       =       0 # mosfets    =       0 # U elements  =       0
  # T elements  =       0 # W elements =       0 # B elements  =       0
  # S elements  =       0 # P elements =       0 # va device   =      34
  # vector_srcs =       0 # N elements =       0


  ******  Runtime Statistics (seconds)  ******

  analysis           time    # points   tot. iter  conv.iter
  op point           0.06           1          19
  transient         10.97       10001        3319        1126 rev=         0
  readin             3.36
  errchk             0.21
  setup              0.02
  output             0.03


           peak memory used        117.46 megabytes
           total cpu time           14.65 seconds
           total elapsed time       25.61 seconds
           job started at     15:59:18 03/19/2014
           job ended   at     15:59:44 03/19/2014


 lic: Release hspice token(s) 
 lic: total license checkout elapse time:        0.20(s)


pVA concluded on Wed Mar 19 15:59:44 2014

