 ****** HSPICE -- G-2012.06 32-BIT (May 27 2012) RHEL32 ******                  
  Copyright (C) 2012 Synopsys, Inc. All Rights Reserved.                        
  Unpublished-rights reserved under US copyright laws.
  This program is protected by law and is subject to the
  terms and conditions of the license agreement from Synopsys.
  Use of this program is your acceptance to be bound by the
  license agreement. HSPICE is the trademark of Synopsys, Inc.
  Input File: gummel_p.sp                                                       
  Command line options: -hdlpath ../code -i gummel_p.sp -o gummel_p
 lic:  
 lic: FLEXlm: v10.8 
 lic: USER:   sourabh              HOSTNAME: bwrcr720-2.eecs.berkeley.edu 
 lic: HOSTID:                      PID:      15062 
 lic: Using FLEXlm license file: 
 lic: 1701@sunv40z-1.eecs.berkeley.edu 
 lic: Checkout 1 hspice 
 lic: License/Maintenance for hspice will expire on 18-nov-2016/2015.06 
 lic: 1(in_use)/50(total) FLOATING license(s) on SERVER sunv40z-1.eecs.berkeley.
 lic:   
 Init: read install configuration file: /tools/synopsys/hspice/G-2012.06/hspice/meta.cfg
 **info** *pvaI* Module (bsimcmg): 5 unexpanded port, 0 init, 2015 behav, 64 contrib, 49/3015 expr(s)

 **info** *pvaI* Resizing DB size for v count = 1

 **info** *pvaI* Resizing DB size for v count = 2

 **info** *pvaI*        Has DIS (PC SB), 5 afCount

 **info** *pvaI*        0 const-G and 0 const-C, Has switch branch.

 **info** *pvaI* Module (bsimcmg): generated 4 flow node(s) during compilation.

 **info** *pvaI* #### Total 762 line-size(s), 49 expr(s), 64 contr(s), 0 init(s), 2015 behav(s), 5 port(s)

 Loading pVA library gummel_p.pvadir/pvaRTL_linux.so...
1****** HSPICE -- G-2012.06 32-BIT (May 27 2012) RHEL32 ******                  
 ******  
 *sample netlist for bsim-mg

  ******  circuit name directory
 circuit number to circuit name directory
   number circuitname                     definition         multiplier
        0 main circuit
        1 x1.                             bsimcmg(va)        1.00 
 **info** *pvaI* Creating Verilog-A module 'bsimcmg' for X1

  
      
 *****************************************************************
 ******  option summary
 ******
 runlvl  = 3         bypass  = 2         
  Opening plot unit= 15
 file=gummel_p.pa0                                                             

 ******  
 *sample netlist for bsim-mg

  ******  dc transfer curves tnom=  25.000 temp=  25.000 *****

   *** source        0:vgate =    0.            ***

x

        volt    param        param        param        param      
                    ids          gx           gx2          gx3    
   -0.10000    -4.499e-10      0.           0.           0.       
 -9.9000e-02   -4.342e-10   -4.499e-07      0.           0.       
 -9.8000e-02   -4.190e-10    1.577e-08   -4.499e-04      0.       
 -9.7000e-02   -4.043e-10    1.521e-08    4.657e-04     -0.4499   
 -9.6000e-02   -3.901e-10    1.468e-08   -5.684e-07      0.9157   
 -9.5000e-02   -3.764e-10    1.417e-08   -5.258e-07     -0.4663   
 -9.4000e-02   -3.632e-10    1.370e-08   -5.116e-07    4.263e-05  
 -9.3000e-02   -3.505e-10    1.320e-08   -4.690e-07    1.421e-05  
 -9.2000e-02   -3.382e-10    1.275e-08   -4.974e-07    4.263e-05  
 -9.1000e-02   -3.263e-10    1.229e-08   -4.547e-07   -2.842e-05  
 -9.0000e-02   -3.149e-10    1.187e-08   -4.547e-07    4.263e-05  
 -8.9000e-02   -3.038e-10    1.145e-08   -4.263e-07   -6.353e-18  
 -8.8000e-02   -2.931e-10    1.107e-08   -4.121e-07    2.842e-05  
 -8.7000e-02   -2.828e-10    1.067e-08   -3.837e-07    1.421e-05  
 -8.6000e-02   -2.729e-10    1.030e-08   -3.979e-07    2.842e-05  
 -8.5000e-02   -2.633e-10    9.919e-09   -3.695e-07   -1.421e-05  
 -8.4000e-02   -2.540e-10    9.592e-09   -3.837e-07    2.842e-05  
 -8.3000e-02   -2.451e-10    9.280e-09   -3.268e-07   -1.421e-05  
 -8.2000e-02   -2.365e-10    8.924e-09   -3.126e-07    5.684e-05  
 -8.1000e-02   -2.281e-10    8.640e-09   -3.553e-07    1.421e-05  
 -8.0000e-02   -2.201e-10    8.313e-09   -2.842e-07   -4.263e-05  
 -7.9000e-02   -2.124e-10    8.043e-09   -3.268e-07    7.105e-05  
 -7.8000e-02   -2.049e-10    7.745e-09   -2.700e-07   -4.263e-05  
 -7.7000e-02   -1.976e-10    7.489e-09   -2.984e-07    5.684e-05  
 -7.6000e-02   -1.907e-10    7.233e-09   -2.558e-07   -2.842e-05  
 -7.5000e-02   -1.840e-10    6.949e-09   -2.558e-07    4.263e-05  
 -7.4000e-02   -1.775e-10    6.708e-09   -2.842e-07    1.075e-16  
 -7.3000e-02   -1.712e-10    6.494e-09   -2.416e-07   -2.842e-05  
 -7.2000e-02   -1.651e-10    6.267e-09   -2.132e-07    4.263e-05  
 -7.1000e-02   -1.593e-10    6.068e-09   -2.274e-07    2.842e-05  
 -7.0000e-02   -1.537e-10    5.812e-09   -1.990e-07   -1.421e-05  
 -6.9000e-02   -1.483e-10    5.642e-09   -2.558e-07    2.842e-05  
 -6.8000e-02   -1.430e-10    5.429e-09   -1.705e-07   -5.684e-05  
 -6.7000e-02   -1.380e-10    5.230e-09   -2.132e-07    8.527e-05  
 -6.6000e-02   -1.331e-10    5.073e-09   -1.990e-07   -4.263e-05  
 -6.5000e-02   -1.284e-10    4.903e-09   -1.563e-07    1.421e-05  
 -6.4000e-02   -1.238e-10    4.690e-09   -1.705e-07    4.263e-05  
 -6.3000e-02   -1.194e-10    4.562e-09   -2.132e-07   -1.421e-05  
 -6.2000e-02   -1.152e-10    4.384e-09   -1.279e-07   -4.263e-05  
 -6.1000e-02   -1.111e-10    4.242e-09   -1.776e-07    8.527e-05  
 -6.0000e-02   -1.071e-10    4.079e-09   -1.421e-07   -4.974e-05  
 -5.9000e-02   -1.033e-10    3.965e-09   -1.634e-07    3.553e-05  
 -5.8000e-02   -9.967e-11    3.794e-09   -1.137e-07   -2.132e-05  
 -5.7000e-02   -9.613e-11    3.674e-09   -1.705e-07    4.974e-05  
 -5.6000e-02   -9.270e-11    3.539e-09   -1.208e-07   -5.684e-05  
 -5.5000e-02   -8.939e-11    3.425e-09   -1.350e-07    4.974e-05  
 -5.4000e-02   -8.621e-11    3.311e-09   -1.137e-07   -1.421e-05  
 -5.3000e-02   -8.313e-11    3.183e-09   -1.137e-07    2.132e-05  
 -5.2000e-02   -8.017e-11    3.077e-09   -1.279e-07    2.441e-17  
 -5.1000e-02   -7.730e-11    2.963e-09   -1.066e-07   -1.421e-05  
 -5.0000e-02   -7.454e-11    2.871e-09   -1.137e-07    2.132e-05  
 -4.9000e-02   -7.189e-11    2.757e-09   -9.237e-08   -7.105e-06  
 -4.8000e-02   -6.931e-11    2.657e-09   -1.137e-07    2.132e-05  
 -4.7000e-02   -6.683e-11    2.572e-09   -9.948e-08   -2.132e-05  
 -4.6000e-02   -6.445e-11    2.480e-09   -8.527e-08    1.421e-05  
 -4.5000e-02   -6.215e-11    2.387e-09   -9.237e-08    1.421e-05  
 -4.4000e-02   -5.996e-11    2.295e-09   -9.237e-08   -7.105e-06  
 -4.3000e-02   -5.784e-11    2.196e-09   -9.237e-08    1.779e-17  
 -4.2000e-02   -5.581e-11    2.117e-09   -9.948e-08      0.       
 -4.1000e-02   -5.388e-11    2.032e-09   -7.816e-08   -7.105e-06  
 -4.0000e-02   -5.207e-11    1.926e-09   -8.527e-08    2.132e-05  
 -3.9000e-02   -5.043e-11    1.812e-09   -1.066e-07   -7.105e-06  
 -3.8000e-02   -4.920e-11    1.634e-09   -1.137e-07   -2.132e-05  
 -3.7000e-02   -4.744e-11    1.236e-09   -1.776e-07   -7.105e-06  
 -3.6000e-02   -4.477e-11    1.762e-09   -3.979e-07   -6.395e-05  
 -3.5000e-02   -4.265e-11    2.665e-09    5.258e-07   -2.203e-04  
 -3.4000e-02   -4.073e-11    2.117e-09    9.024e-07    9.237e-04  
 -3.3000e-02   -3.892e-11    1.926e-09   -5.471e-07    3.766e-04  
 -3.2000e-02   -3.720e-11    1.812e-09   -1.918e-07   -1.450e-03  
 -3.1000e-02   -3.556e-11    1.712e-09   -1.137e-07    3.553e-04  
 -3.0000e-02   -3.399e-11    1.645e-09   -9.948e-08    7.816e-05  
 -2.9000e-02   -3.246e-11    1.570e-09   -6.750e-08    1.421e-05  
 -2.8000e-02   -3.099e-11    1.524e-09   -7.461e-08    3.197e-05  
 -2.7000e-02   -2.958e-11    1.471e-09   -4.619e-08   -7.105e-06  
 -2.6000e-02   -2.820e-11    1.414e-09   -5.329e-08    2.842e-05  
 -2.5000e-02   -2.687e-11    1.375e-09   -5.684e-08   -7.105e-06  
 -2.4000e-02   -2.557e-11    1.336e-09   -3.908e-08   -3.553e-06  
 -2.3000e-02   -2.431e-11    1.300e-09   -3.908e-08    1.776e-05  
 -2.2000e-02   -2.307e-11    1.258e-09   -3.553e-08      0.       
 -2.1000e-02   -2.187e-11    1.236e-09   -4.263e-08    3.553e-06  
 -2.0000e-02   -2.069e-11    1.204e-09   -2.132e-08   -7.105e-06  
 -1.9000e-02   -1.954e-11    1.180e-09   -3.197e-08    2.132e-05  
 -1.8000e-02   -1.841e-11    1.151e-09   -2.487e-08   -1.066e-05  
 -1.7000e-02   -1.730e-11    1.126e-09   -2.842e-08    7.105e-06  
 -1.6000e-02   -1.621e-11    1.112e-09   -2.487e-08   -3.553e-06  
 -1.5000e-02   -1.513e-11    1.096e-09   -1.421e-08    3.553e-06  
 -1.4000e-02   -1.407e-11    1.071e-09   -1.599e-08    1.066e-05  
 -1.3000e-02   -1.302e-11    1.062e-09   -2.487e-08   -1.776e-06  
 -1.2000e-02   -1.199e-11    1.052e-09   -8.882e-09   -8.882e-06  
 -1.1000e-02   -1.096e-11    1.034e-09   -1.066e-08    1.599e-05  
 -1.0000e-02   -9.942e-12    1.029e-09   -1.776e-08   -1.776e-06  
 -9.0000e-03   -8.928e-12    1.016e-09   -5.329e-09   -7.105e-06  
 -8.0000e-03   -7.924e-12    1.014e-09   -1.243e-08    1.243e-05  
 -7.0000e-03   -6.922e-12    1.004e-09   -1.776e-09   -7.105e-06  
 -6.0000e-03   -5.926e-12    1.003e-09   -1.066e-08    1.066e-05  
 -5.0000e-03   -4.933e-12    9.956e-10   -8.882e-10   -8.882e-06  
 -4.0000e-03   -3.943e-12    9.930e-10   -7.105e-09    9.770e-06  
 -3.0000e-03   -2.955e-12    9.899e-10   -2.665e-09   -6.217e-06  
 -2.0000e-03   -1.968e-12    9.885e-10   -3.109e-09    4.441e-06  
 -1.0000e-03   -9.835e-13    9.861e-10   -1.332e-09   -4.441e-07  
    0.          3.276e-28    9.849e-10   -2.442e-09    1.776e-06  
  1.0000e-03    9.838e-13    9.835e-10   -1.221e-09   -1.110e-06  
  2.0000e-03    1.968e-12    9.838e-10   -1.332e-09    1.221e-06  
  3.0000e-03    2.955e-12    9.842e-10    2.220e-10   -1.110e-07  
  4.0000e-03    3.942e-12    9.865e-10    4.441e-10    1.554e-06  
  5.0000e-03    4.933e-12    9.877e-10    2.331e-09    2.220e-07  
  6.0000e-03    5.926e-12    9.908e-10    1.110e-09    1.887e-06  
  7.0000e-03    6.922e-12    9.930e-10    3.109e-09   -1.221e-06  
  8.0000e-03    7.924e-12    9.965e-10    2.220e-09    1.998e-06  
  9.0000e-03    8.928e-12    1.002e-09    3.553e-09   -8.882e-07  
  1.0000e-02    9.940e-12    1.004e-09    5.329e-09    1.332e-06  
  1.1000e-02    1.096e-11    1.013e-09    1.776e-09    1.776e-06  
  1.2000e-02    1.199e-11    1.020e-09    8.882e-09   -3.553e-06  
  1.3000e-02    1.302e-11    1.027e-09    7.105e-09    7.105e-06  
  1.4000e-02    1.407e-11    1.036e-09    7.105e-09   -1.776e-06  
  1.5000e-02    1.513e-11    1.052e-09    8.882e-09      0.       
  1.6000e-02    1.621e-11    1.060e-09    1.599e-08    1.776e-06  
  1.7000e-02    1.730e-11    1.071e-09    8.882e-09    7.105e-06  
  1.8000e-02    1.841e-11    1.096e-09    1.066e-08   -7.105e-06  
  1.9000e-02    1.954e-11    1.112e-09    2.487e-08    1.776e-06  
  2.0000e-02    2.069e-11    1.126e-09    1.599e-08    1.421e-05  
  2.1000e-02    2.187e-11    1.151e-09    1.421e-08   -8.882e-06  
  2.2000e-02    2.307e-11    1.183e-09    2.487e-08   -1.776e-06  
  2.3000e-02    2.431e-11    1.201e-09    3.197e-08    1.066e-05  
  2.4000e-02    2.557e-11    1.236e-09    1.776e-08    7.105e-06  
  2.5000e-02    2.687e-11    1.258e-09    3.553e-08   -1.421e-05  
  2.6000e-02    2.820e-11    1.304e-09    2.132e-08    1.776e-05  
  2.7000e-02    2.958e-11    1.332e-09    4.619e-08   -1.421e-05  
  2.8000e-02    3.100e-11    1.375e-09    2.842e-08    2.487e-05  
  2.9000e-02    3.247e-11    1.421e-09    4.263e-08   -1.776e-05  
  3.0000e-02    3.399e-11    1.471e-09    4.619e-08    1.421e-05  
  3.1000e-02    3.556e-11    1.513e-09    4.974e-08    3.553e-06  
  3.2000e-02    3.720e-11    1.577e-09    4.263e-08    3.553e-06  
  3.3000e-02    3.892e-11    1.641e-09    6.395e-08   -7.105e-06  
  3.4000e-02    4.073e-11    1.720e-09    6.395e-08    2.132e-05  
  3.5000e-02    4.265e-11    1.805e-09    7.816e-08      0.       
  3.6000e-02    4.478e-11    1.926e-09    8.527e-08    1.421e-05  
  3.7000e-02    4.744e-11    2.125e-09    1.208e-07    7.105e-06  
  3.8000e-02    4.920e-11    2.657e-09    1.990e-07    3.553e-05  
  3.9000e-02    5.043e-11    1.762e-09    5.329e-07    7.816e-05  
  4.0000e-02    5.207e-11    1.236e-09   -8.953e-07    3.340e-04  
  4.1000e-02    5.387e-11    1.634e-09   -5.258e-07   -1.428e-03  
  4.2000e-02    5.581e-11    1.805e-09    3.979e-07    3.695e-04  
  4.3000e-02    5.784e-11    1.933e-09    1.705e-07    9.237e-04  
  4.4000e-02    5.996e-11    2.032e-09    1.279e-07   -2.274e-04  
  4.5000e-02    6.215e-11    2.117e-09    9.948e-08   -4.263e-05  
  4.6000e-02    6.445e-11    2.196e-09    8.527e-08   -2.842e-05  
  4.7000e-02    6.684e-11    2.295e-09    7.816e-08   -1.421e-05  
  4.8000e-02    6.932e-11    2.395e-09    9.948e-08   -7.105e-06  
  4.9000e-02    7.188e-11    2.480e-09    9.948e-08    2.132e-05  
  5.0000e-02    7.454e-11    2.558e-09    8.527e-08      0.       
  5.1000e-02    7.731e-11    2.665e-09    7.816e-08   -1.421e-05  
  5.2000e-02    8.017e-11    2.764e-09    1.066e-07   -7.105e-06  
  5.3000e-02    8.313e-11    2.863e-09    9.948e-08    2.842e-05  
  5.4000e-02    8.621e-11    2.963e-09    9.948e-08   -7.105e-06  
  5.5000e-02    8.940e-11    3.077e-09    9.948e-08      0.       
  5.6000e-02    9.270e-11    3.190e-09    1.137e-07      0.       
  5.7000e-02    9.612e-11    3.304e-09    1.137e-07    1.421e-05  
  5.8000e-02    9.967e-11    3.418e-09    1.137e-07    4.103e-19  
  5.9000e-02    1.033e-10    3.546e-09    1.137e-07      0.       
  6.0000e-02    1.071e-10    3.666e-09    1.279e-07      0.       
  6.1000e-02    1.111e-10    3.809e-09    1.208e-07    1.421e-05  
  6.2000e-02    1.152e-10    3.965e-09    1.421e-07   -7.105e-06  
  6.3000e-02    1.194e-10    4.071e-09    1.563e-07    2.132e-05  
  6.4000e-02    1.238e-10    4.242e-09    1.066e-07    1.421e-05  
  6.5000e-02    1.284e-10    4.398e-09    1.705e-07   -4.974e-05  
  6.6000e-02    1.331e-10    4.533e-09    1.563e-07    6.395e-05  
  6.7000e-02    1.380e-10    4.718e-09    1.350e-07   -1.421e-05  
  6.8000e-02    1.430e-10    4.889e-09    1.847e-07   -2.132e-05  
  6.9000e-02    1.483e-10    5.073e-09    1.705e-07    4.974e-05  
  7.0000e-02    1.537e-10    5.230e-09    1.847e-07   -1.421e-05  
  7.1000e-02    1.593e-10    5.429e-09    1.563e-07    1.421e-05  
  7.2000e-02    1.652e-10    5.627e-09    1.990e-07   -2.842e-05  
  7.3000e-02    1.712e-10    5.841e-09    1.990e-07    4.263e-05  
  7.4000e-02    1.775e-10    6.040e-09    2.132e-07      0.       
  7.5000e-02    1.840e-10    6.267e-09    1.990e-07    1.421e-05  
  7.6000e-02    1.907e-10    6.494e-09    2.274e-07   -1.421e-05  
  7.7000e-02    1.977e-10    6.708e-09    2.274e-07    2.842e-05  
  7.8000e-02    2.049e-10    6.992e-09    2.132e-07    1.748e-16  
  7.9000e-02    2.124e-10    7.205e-09    2.842e-07   -1.421e-05  
  8.0000e-02    2.201e-10    7.503e-09    2.132e-07    7.105e-05  
  8.1000e-02    2.281e-10    7.745e-09    2.984e-07   -7.105e-05  
  8.2000e-02    2.365e-10    8.029e-09    2.416e-07    8.527e-05  
  8.3000e-02    2.451e-10    8.328e-09    2.842e-07   -5.684e-05  
  8.4000e-02    2.540e-10    8.612e-09    2.984e-07    4.263e-05  
  8.5000e-02    2.633e-10    8.953e-09    2.842e-07    1.421e-05  
  8.6000e-02    2.729e-10    9.280e-09    3.411e-07   -1.421e-05  
  8.7000e-02    2.828e-10    9.550e-09    3.268e-07    5.684e-05  
  8.8000e-02    2.931e-10    9.962e-09    2.700e-07   -1.421e-05  
  8.9000e-02    3.038e-10    1.029e-08    4.121e-07   -5.684e-05  
  9.0000e-02    3.149e-10    1.067e-08    3.268e-07    1.421e-04  
  9.1000e-02    3.263e-10    1.107e-08    3.837e-07   -8.527e-05  
  9.2000e-02    3.382e-10    1.145e-08    3.979e-07    5.684e-05  
  9.3000e-02    3.505e-10    1.187e-08    3.837e-07    1.421e-05  
  9.4000e-02    3.632e-10    1.229e-08    4.121e-07   -1.421e-05  
  9.5000e-02    3.764e-10    1.276e-08    4.263e-07    2.842e-05  
  9.6000e-02    3.901e-10    1.319e-08    4.690e-07    1.421e-05  
  9.7000e-02    4.043e-10    1.370e-08    4.263e-07    4.263e-05  
  9.8000e-02    4.190e-10    1.417e-08    5.116e-07   -4.263e-05  
  9.9000e-02    4.342e-10    1.468e-08    4.690e-07    8.527e-05  
    0.10000     4.499e-10    1.519e-08    5.116e-07   -4.263e-05  
y
x

        volt    param      
                    gx4    
   -0.10000       0.       
 -9.9000e-02      0.       
 -9.8000e-02      0.       
 -9.7000e-02      0.       
 -9.6000e-02   -449.9441   
 -9.5000e-02    1.365e+03  
 -9.4000e-02   -1.381e+03  
 -9.3000e-02    466.3292   
 -9.2000e-02   -2.842e-02  
 -9.1000e-02    2.842e-02  
 -9.0000e-02   -7.105e-02  
 -8.9000e-02    7.105e-02  
 -8.8000e-02   -4.263e-02  
 -8.7000e-02    2.842e-02  
 -8.6000e-02   -1.421e-02  
 -8.5000e-02    1.421e-02  
 -8.4000e-02   -4.263e-02  
 -8.3000e-02    4.263e-02  
 -8.2000e-02   -4.263e-02  
 -8.1000e-02    7.105e-02  
 -8.0000e-02   -4.263e-02  
 -7.9000e-02   -5.684e-02  
 -7.8000e-02      0.1137   
 -7.7000e-02     -0.1137   
 -7.6000e-02    9.948e-02  
 -7.5000e-02   -8.527e-02  
 -7.4000e-02    7.105e-02  
 -7.3000e-02   -4.263e-02  
 -7.2000e-02   -2.842e-02  
 -7.1000e-02    7.105e-02  
 -7.0000e-02   -1.421e-02  
 -6.9000e-02   -4.263e-02  
 -6.8000e-02    4.263e-02  
 -6.7000e-02   -8.527e-02  
 -6.6000e-02      0.1421   
 -6.5000e-02     -0.1279   
 -6.4000e-02    5.684e-02  
 -6.3000e-02    2.842e-02  
 -6.2000e-02   -5.684e-02  
 -6.1000e-02   -2.842e-02  
 -6.0000e-02      0.1279   
 -5.9000e-02     -0.1350   
 -5.8000e-02    8.527e-02  
 -5.7000e-02   -5.684e-02  
 -5.6000e-02    7.105e-02  
 -5.5000e-02     -0.1066   
 -5.4000e-02      0.1066   
 -5.3000e-02   -6.395e-02  
 -5.2000e-02    3.553e-02  
 -5.1000e-02   -2.132e-02  
 -5.0000e-02   -1.421e-02  
 -4.9000e-02    3.553e-02  
 -4.8000e-02   -2.842e-02  
 -4.7000e-02    2.842e-02  
 -4.6000e-02   -4.263e-02  
 -4.5000e-02    3.553e-02  
 -4.4000e-02    1.957e-14  
 -4.3000e-02   -2.132e-02  
 -4.2000e-02    7.105e-03  
 -4.1000e-02   -1.779e-14  
 -4.0000e-02   -7.105e-03  
 -3.9000e-02    2.842e-02  
 -3.8000e-02   -2.842e-02  
 -3.7000e-02   -1.421e-02  
 -3.6000e-02    1.421e-02  
 -3.5000e-02   -5.684e-02  
 -3.4000e-02     -0.1563   
 -3.3000e-02      1.1440   
 -3.2000e-02     -0.5471   
 -3.1000e-02     -1.8261   
 -3.0000e-02      1.8048   
 -2.9000e-02     -0.2771   
 -2.8000e-02   -6.395e-02  
 -2.7000e-02    1.776e-02  
 -2.6000e-02   -3.908e-02  
 -2.5000e-02    3.553e-02  
 -2.4000e-02   -3.553e-02  
 -2.3000e-02    3.553e-03  
 -2.2000e-02    2.132e-02  
 -2.1000e-02   -1.776e-02  
 -2.0000e-02    3.553e-03  
 -1.9000e-02   -1.066e-02  
 -1.8000e-02    2.842e-02  
 -1.7000e-02   -3.197e-02  
 -1.6000e-02    1.776e-02  
 -1.5000e-02   -1.066e-02  
 -1.4000e-02    7.105e-03  
 -1.3000e-02    7.105e-03  
 -1.2000e-02   -1.243e-02  
 -1.1000e-02   -7.105e-03  
 -1.0000e-02    2.487e-02  
 -9.0000e-03   -1.776e-02  
 -8.0000e-03   -5.329e-03  
 -7.0000e-03    1.954e-02  
 -6.0000e-03   -1.954e-02  
 -5.0000e-03    1.776e-02  
 -4.0000e-03   -1.954e-02  
 -3.0000e-03    1.865e-02  
 -2.0000e-03   -1.599e-02  
 -1.0000e-03    1.066e-02  
    0.         -4.885e-03  
  1.0000e-03    2.220e-03  
  2.0000e-03   -2.887e-03  
  3.0000e-03    2.331e-03  
  4.0000e-03   -1.332e-03  
  5.0000e-03    1.665e-03  
  6.0000e-03   -1.332e-03  
  7.0000e-03    1.665e-03  
  8.0000e-03   -3.109e-03  
  9.0000e-03    3.220e-03  
  1.0000e-02   -2.887e-03  
  1.1000e-02    2.220e-03  
  1.2000e-02    4.441e-04  
  1.3000e-02   -5.329e-03  
  1.4000e-02    1.066e-02  
  1.5000e-02   -8.882e-03  
  1.6000e-02    1.776e-03  
  1.7000e-02    1.776e-03  
  1.8000e-02    5.329e-03  
  1.9000e-02   -1.421e-02  
  2.0000e-02    8.882e-03  
  2.1000e-02    1.243e-02  
  2.2000e-02   -2.309e-02  
  2.3000e-02    7.105e-03  
  2.4000e-02    1.243e-02  
  2.5000e-02   -3.553e-03  
  2.6000e-02   -2.132e-02  
  2.7000e-02    3.197e-02  
  2.8000e-02   -3.197e-02  
  2.9000e-02    3.908e-02  
  3.0000e-02   -4.263e-02  
  3.1000e-02    3.197e-02  
  3.2000e-02   -1.066e-02  
  3.3000e-02   -6.776e-18  
  3.4000e-02   -1.066e-02  
  3.5000e-02    2.842e-02  
  3.6000e-02   -2.132e-02  
  3.7000e-02    1.421e-02  
  3.8000e-02   -7.105e-03  
  3.9000e-02    2.842e-02  
  4.0000e-02    4.263e-02  
  4.1000e-02      0.2558   
  4.2000e-02     -1.7621   
  4.3000e-02      1.7977   
  4.4000e-02      0.5542   
  4.5000e-02     -1.1511   
  4.6000e-02      0.1847   
  4.7000e-02    1.421e-02  
  4.8000e-02    1.421e-02  
  4.9000e-02    7.105e-03  
  5.0000e-02    2.842e-02  
  5.1000e-02   -2.132e-02  
  5.2000e-02   -1.421e-02  
  5.3000e-02    7.105e-03  
  5.4000e-02    3.553e-02  
  5.5000e-02   -3.553e-02  
  5.6000e-02    7.105e-03  
  5.7000e-02      0.       
  5.8000e-02    1.421e-02  
  5.9000e-02   -1.421e-02  
  6.0000e-02   -4.103e-16  
  6.1000e-02      0.       
  6.2000e-02    1.421e-02  
  6.3000e-02   -2.132e-02  
  6.4000e-02    2.842e-02  
  6.5000e-02   -7.105e-03  
  6.6000e-02   -6.395e-02  
  6.7000e-02      0.1137   
  6.8000e-02   -7.816e-02  
  6.9000e-02   -7.105e-03  
  7.0000e-02    7.105e-02  
  7.1000e-02   -6.395e-02  
  7.2000e-02    2.842e-02  
  7.3000e-02   -4.263e-02  
  7.4000e-02    7.105e-02  
  7.5000e-02   -4.263e-02  
  7.6000e-02    1.421e-02  
  7.7000e-02   -2.842e-02  
  7.8000e-02    4.263e-02  
  7.9000e-02   -2.842e-02  
  8.0000e-02   -1.421e-02  
  8.1000e-02    8.527e-02  
  8.2000e-02     -0.1421   
  8.3000e-02      0.1563   
  8.4000e-02     -0.1421   
  8.5000e-02    9.948e-02  
  8.6000e-02   -2.842e-02  
  8.7000e-02   -2.842e-02  
  8.8000e-02    7.105e-02  
  8.9000e-02   -7.105e-02  
  9.0000e-02   -4.263e-02  
  9.1000e-02      0.1990   
  9.2000e-02     -0.2274   
  9.3000e-02      0.1421   
  9.4000e-02   -4.263e-02  
  9.5000e-02   -2.842e-02  
  9.6000e-02    4.263e-02  
  9.7000e-02   -1.421e-02  
  9.8000e-02    2.842e-02  
  9.9000e-02   -8.527e-02  
    0.10000       0.1279   
y
-----------------------------------------------
 ******  
 *sample netlist for bsim-mg

  ******  dc transfer curves tnom=  25.000 temp=  25.000 *****

   *** source        0:vgate =   -0.2000        ***

x

        volt    param        param        param        param      
                    ids          gx           gx2          gx3    
   -0.10000    -3.130e-07   -4.499e-09   -1.519e-07   -5.116e-06  
 -9.9000e-02   -3.030e-07   -3.135e-04   -1.969e-05   -6.635e-04  
 -9.8000e-02   -2.933e-07    1.003e-05     -0.3135    -1.954e-02  
 -9.7000e-02   -2.838e-07    9.727e-06      0.3235    -313.4640   
 -9.6000e-02   -2.747e-07    9.436e-06   -2.984e-04    636.9975   
 -9.5000e-02   -2.658e-07    9.153e-06   -2.907e-04   -323.8122   
 -9.4000e-02   -2.572e-07    8.878e-06   -2.829e-04    7.745e-03  
 -9.3000e-02   -2.489e-07    8.610e-06   -2.754e-04    7.759e-03  
 -9.2000e-02   -2.408e-07    8.349e-06   -2.681e-04    7.489e-03  
 -9.1000e-02   -2.329e-07    8.095e-06   -2.608e-04    7.375e-03  
 -9.0000e-02   -2.253e-07    7.849e-06   -2.538e-04    7.219e-03  
 -8.9000e-02   -2.179e-07    7.609e-06   -2.468e-04    7.077e-03  
 -8.8000e-02   -2.108e-07    7.375e-06   -2.400e-04    6.949e-03  
 -8.7000e-02   -2.039e-07    7.148e-06   -2.335e-04    6.764e-03  
 -8.6000e-02   -1.971e-07    6.928e-06   -2.269e-04    6.565e-03  
 -8.5000e-02   -1.906e-07    6.713e-06   -2.206e-04    6.594e-03  
 -8.4000e-02   -1.843e-07    6.505e-06   -2.144e-04    6.253e-03  
 -8.3000e-02   -1.782e-07    6.302e-06   -2.084e-04    6.253e-03  
 -8.2000e-02   -1.723e-07    6.106e-06   -2.024e-04    6.025e-03  
 -8.1000e-02   -1.666e-07    5.915e-06   -1.967e-04    5.926e-03  
 -8.0000e-02   -1.610e-07    5.729e-06   -1.910e-04    5.755e-03  
 -7.9000e-02   -1.557e-07    5.549e-06   -1.855e-04    5.699e-03  
 -7.8000e-02   -1.505e-07    5.374e-06   -1.801e-04    5.471e-03  
 -7.7000e-02   -1.454e-07    5.204e-06   -1.749e-04    5.400e-03  
 -7.6000e-02   -1.405e-07    5.040e-06   -1.697e-04    5.244e-03  
 -7.5000e-02   -1.358e-07    4.880e-06   -1.647e-04    5.130e-03  
 -7.4000e-02   -1.312e-07    4.725e-06   -1.599e-04    4.988e-03  
 -7.3000e-02   -1.268e-07    4.574e-06   -1.551e-04    4.889e-03  
 -7.2000e-02   -1.225e-07    4.428e-06   -1.505e-04    4.746e-03  
 -7.1000e-02   -1.184e-07    4.287e-06   -1.460e-04    4.633e-03  
 -7.0000e-02   -1.144e-07    4.149e-06   -1.416e-04    4.505e-03  
 -6.9000e-02   -1.105e-07    4.016e-06   -1.373e-04    4.420e-03  
 -6.8000e-02   -1.067e-07    3.887e-06   -1.331e-04    4.292e-03  
 -6.7000e-02   -1.031e-07    3.762e-06   -1.290e-04    4.178e-03  
 -6.6000e-02   -9.954e-08    3.641e-06   -1.251e-04    4.064e-03  
 -6.5000e-02   -9.613e-08    3.524e-06   -1.212e-04    3.951e-03  
 -6.4000e-02   -9.283e-08    3.410e-06   -1.175e-04    3.880e-03  
 -6.3000e-02   -8.964e-08    3.300e-06   -1.138e-04    3.737e-03  
 -6.2000e-02   -8.655e-08    3.193e-06   -1.102e-04    3.681e-03  
 -6.1000e-02   -8.356e-08    3.090e-06   -1.068e-04    3.581e-03  
 -6.0000e-02   -8.067e-08    2.989e-06   -1.033e-04    3.389e-03  
 -5.9000e-02   -7.787e-08    2.893e-06   -1.001e-04    3.460e-03  
 -5.8000e-02   -7.516e-08    2.799e-06   -9.689e-05    3.240e-03  
 -5.7000e-02   -7.254e-08    2.708e-06   -9.382e-05    3.212e-03  
 -5.6000e-02   -7.001e-08    2.620e-06   -9.075e-05    3.070e-03  
 -5.5000e-02   -6.755e-08    2.535e-06   -8.782e-05    3.070e-03  
 -5.4000e-02   -6.518e-08    2.453e-06   -8.499e-05    2.935e-03  
 -5.3000e-02   -6.288e-08    2.374e-06   -8.215e-05    2.828e-03  
 -5.2000e-02   -6.066e-08    2.297e-06   -7.947e-05    2.835e-03  
 -5.1000e-02   -5.851e-08    2.222e-06   -7.682e-05    2.686e-03  
 -5.0000e-02   -5.643e-08    2.151e-06   -7.425e-05    2.643e-03  
 -4.9000e-02   -5.441e-08    2.081e-06   -7.174e-05    2.572e-03  
 -4.8000e-02   -5.247e-08    2.014e-06   -6.933e-05    2.508e-03  
 -4.7000e-02   -5.058e-08    1.950e-06   -6.694e-05    2.416e-03  
 -4.6000e-02   -4.875e-08    1.887e-06   -6.465e-05    2.387e-03  
 -4.5000e-02   -4.698e-08    1.827e-06   -6.239e-05    2.295e-03  
 -4.4000e-02   -4.527e-08    1.769e-06   -6.018e-05    2.252e-03  
 -4.3000e-02   -4.361e-08    1.713e-06   -5.807e-05    2.210e-03  
 -4.2000e-02   -4.200e-08    1.659e-06   -5.595e-05    2.117e-03  
 -4.1000e-02   -4.044e-08    1.607e-06   -5.395e-05    2.117e-03  
 -4.0000e-02   -3.893e-08    1.557e-06   -5.193e-05    1.997e-03  
 -3.9000e-02   -3.747e-08    1.509e-06   -5.001e-05    2.025e-03  
 -3.8000e-02   -3.605e-08    1.463e-06   -4.809e-05    1.918e-03  
 -3.7000e-02   -3.468e-08    1.419e-06   -4.625e-05    1.918e-03  
 -3.6000e-02   -3.334e-08    1.376e-06   -4.442e-05    1.840e-03  
 -3.5000e-02   -3.205e-08    1.335e-06   -4.264e-05    1.826e-03  
 -3.4000e-02   -3.079e-08    1.296e-06   -4.087e-05    1.783e-03  
 -3.3000e-02   -2.956e-08    1.258e-06   -3.919e-05    1.769e-03  
 -3.2000e-02   -2.838e-08    1.223e-06   -3.747e-05    1.684e-03  
 -3.1000e-02   -2.722e-08    1.188e-06   -3.583e-05    1.712e-03  
 -3.0000e-02   -2.610e-08    1.156e-06   -3.420e-05    1.648e-03  
 -2.9000e-02   -2.500e-08    1.125e-06   -3.258e-05    1.624e-03  
 -2.8000e-02   -2.393e-08    1.095e-06   -3.102e-05    1.624e-03  
 -2.7000e-02   -2.289e-08    1.067e-06   -2.944e-05    1.563e-03  
 -2.6000e-02   -2.188e-08    1.041e-06   -2.790e-05    1.570e-03  
 -2.5000e-02   -2.088e-08    1.016e-06   -2.640e-05    1.545e-03  
 -2.4000e-02   -1.991e-08    9.928e-07   -2.488e-05    1.503e-03  
 -2.3000e-02   -1.896e-08    9.708e-07   -2.342e-05    1.513e-03  
 -2.2000e-02   -1.803e-08    9.503e-07   -2.196e-05    1.464e-03  
 -2.1000e-02   -1.712e-08    9.312e-07   -2.052e-05    1.460e-03  
 -2.0000e-02   -1.622e-08    9.135e-07   -1.912e-05    1.439e-03  
 -1.9000e-02   -1.534e-08    8.971e-07   -1.772e-05    1.403e-03  
 -1.8000e-02   -1.447e-08    8.821e-07   -1.636e-05    1.396e-03  
 -1.7000e-02   -1.361e-08    8.684e-07   -1.502e-05    1.357e-03  
 -1.6000e-02   -1.277e-08    8.559e-07   -1.371e-05    1.346e-03  
 -1.5000e-02   -1.193e-08    8.447e-07   -1.244e-05    1.307e-03  
 -1.4000e-02   -1.111e-08    8.347e-07   -1.120e-05    1.268e-03  
 -1.3000e-02   -1.029e-08    8.259e-07   -9.997e-06    1.240e-03  
 -1.2000e-02   -9.479e-09    8.181e-07   -8.839e-06    1.204e-03  
 -1.1000e-02   -8.673e-09    8.114e-07   -7.736e-06    1.158e-03  
 -1.0000e-02   -7.872e-09    8.057e-07   -6.699e-06    1.103e-03  
 -9.0000e-03   -7.075e-09    8.009e-07   -5.720e-06    1.037e-03  
 -8.0000e-03   -6.282e-09    7.969e-07   -4.837e-06    9.788e-04  
 -7.0000e-03   -5.491e-09    7.935e-07   -4.032e-06    8.828e-04  
 -6.0000e-03   -4.703e-09    7.908e-07   -3.328e-06    8.047e-04  
 -5.0000e-03   -3.916e-09    7.886e-07   -2.727e-06    7.043e-04  
 -4.0000e-03   -3.131e-09    7.867e-07   -2.232e-06    6.013e-04  
 -3.0000e-03   -2.347e-09    7.852e-07   -1.826e-06    4.947e-04  
 -2.0000e-03   -1.564e-09    7.840e-07   -1.509e-06    4.059e-04  
 -1.0000e-03   -7.816e-10    7.829e-07   -1.264e-06    3.171e-04  
    0.          1.271e-14    7.821e-07   -1.042e-06    2.451e-04  
  1.0000e-03    7.816e-10    7.816e-07   -8.169e-07    2.214e-04  
  2.0000e-03    1.564e-09    7.816e-07   -5.115e-07    2.256e-04  
  3.0000e-03    2.347e-09    7.821e-07   -1.076e-10    3.054e-04  
  4.0000e-03    3.131e-09    7.829e-07    5.112e-07    5.114e-04  
  5.0000e-03    3.916e-09    7.840e-07    8.173e-07    5.113e-04  
  6.0000e-03    4.703e-09    7.852e-07    1.044e-06    3.061e-04  
  7.0000e-03    5.491e-09    7.867e-07    1.260e-06    2.265e-04  
  8.0000e-03    6.282e-09    7.886e-07    1.511e-06    2.165e-04  
  9.0000e-03    7.076e-09    7.908e-07    1.828e-06    2.509e-04  
  1.0000e-02    7.872e-09    7.935e-07    2.230e-06    3.166e-04  
  1.1000e-02    8.673e-09    7.969e-07    2.726e-06    4.023e-04  
  1.2000e-02    9.479e-09    8.009e-07    3.331e-06    4.956e-04  
  1.3000e-02    1.029e-08    8.057e-07    4.032e-06    6.048e-04  
  1.4000e-02    1.111e-08    8.114e-07    4.832e-06    7.017e-04  
  1.5000e-02    1.193e-08    8.181e-07    5.723e-06    7.994e-04  
  1.6000e-02    1.277e-08    8.259e-07    6.700e-06    8.917e-04  
  1.7000e-02    1.361e-08    8.347e-07    7.732e-06    9.770e-04  
  1.8000e-02    1.447e-08    8.447e-07    8.844e-06    1.032e-03  
  1.9000e-02    1.534e-08    8.559e-07    9.997e-06    1.112e-03  
  2.0000e-02    1.622e-08    8.684e-07    1.120e-05    1.153e-03  
  2.1000e-02    1.712e-08    8.821e-07    1.243e-05    1.201e-03  
  2.2000e-02    1.803e-08    8.971e-07    1.372e-05    1.236e-03  
  2.3000e-02    1.896e-08    9.134e-07    1.502e-05    1.283e-03  
  2.4000e-02    1.991e-08    9.312e-07    1.635e-05    1.307e-03  
  2.5000e-02    2.088e-08    9.503e-07    1.773e-05    1.329e-03  
  2.6000e-02    2.188e-08    9.708e-07    1.911e-05    1.375e-03  
  2.7000e-02    2.289e-08    9.928e-07    2.051e-05    1.386e-03  
  2.8000e-02    2.393e-08    1.016e-06    2.197e-05    1.400e-03  
  2.9000e-02    2.500e-08    1.041e-06    2.341e-05    1.453e-03  
  3.0000e-02    2.610e-08    1.067e-06    2.490e-05    1.446e-03  
  3.1000e-02    2.722e-08    1.095e-06    2.639e-05    1.485e-03  
  3.2000e-02    2.838e-08    1.125e-06    2.791e-05    1.489e-03  
  3.3000e-02    2.956e-08    1.156e-06    2.944e-05    1.521e-03  
  3.4000e-02    3.079e-08    1.188e-06    3.100e-05    1.538e-03  
  3.5000e-02    3.205e-08    1.223e-06    3.259e-05    1.560e-03  
  3.6000e-02    3.334e-08    1.258e-06    3.419e-05    1.588e-03  
  3.7000e-02    3.468e-08    1.296e-06    3.583e-05    1.602e-03  
  3.8000e-02    3.605e-08    1.335e-06    3.747e-05    1.631e-03  
  3.9000e-02    3.747e-08    1.376e-06    3.918e-05    1.648e-03  
  4.0000e-02    3.893e-08    1.419e-06    4.088e-05    1.705e-03  
  4.1000e-02    4.044e-08    1.463e-06    4.263e-05    1.705e-03  
  4.2000e-02    4.200e-08    1.509e-06    4.442e-05    1.748e-03  
  4.3000e-02    4.361e-08    1.557e-06    4.626e-05    1.783e-03  
  4.4000e-02    4.527e-08    1.607e-06    4.810e-05    1.840e-03  
  4.5000e-02    4.698e-08    1.659e-06    5.000e-05    1.840e-03  
  4.6000e-02    4.875e-08    1.713e-06    5.192e-05    1.904e-03  
  4.7000e-02    5.058e-08    1.769e-06    5.396e-05    1.918e-03  
  4.8000e-02    5.247e-08    1.827e-06    5.595e-05    2.039e-03  
  4.9000e-02    5.441e-08    1.887e-06    5.807e-05    1.990e-03  
  5.0000e-02    5.643e-08    1.950e-06    6.019e-05    2.117e-03  
  5.1000e-02    5.851e-08    2.014e-06    6.239e-05    2.125e-03  
  5.2000e-02    6.066e-08    2.081e-06    6.463e-05    2.203e-03  
  5.3000e-02    6.288e-08    2.151e-06    6.694e-05    2.238e-03  
  5.4000e-02    6.518e-08    2.222e-06    6.934e-05    2.309e-03  
  5.5000e-02    6.755e-08    2.297e-06    7.174e-05    2.402e-03  
  5.6000e-02    7.001e-08    2.374e-06    7.426e-05    2.395e-03  
  5.7000e-02    7.254e-08    2.453e-06    7.681e-05    2.522e-03  
  5.8000e-02    7.516e-08    2.535e-06    7.946e-05    2.551e-03  
  5.9000e-02    7.787e-08    2.620e-06    8.220e-05    2.650e-03  
  6.0000e-02    8.067e-08    2.708e-06    8.495e-05    2.736e-03  
  6.1000e-02    8.356e-08    2.799e-06    8.783e-05    2.750e-03  
  6.2000e-02    8.655e-08    2.893e-06    9.077e-05    2.885e-03  
  6.3000e-02    8.964e-08    2.989e-06    9.378e-05    2.942e-03  
  6.4000e-02    9.283e-08    3.090e-06    9.691e-05    3.006e-03  
  6.5000e-02    9.613e-08    3.193e-06    1.001e-04    3.133e-03  
  6.6000e-02    9.954e-08    3.300e-06    1.034e-04    3.176e-03  
  6.7000e-02    1.031e-07    3.410e-06    1.068e-04    3.283e-03  
  6.8000e-02    1.067e-07    3.524e-06    1.102e-04    3.403e-03  
  6.9000e-02    1.105e-07    3.641e-06    1.138e-04    3.432e-03  
  7.0000e-02    1.144e-07    3.762e-06    1.175e-04    3.581e-03  
  7.1000e-02    1.184e-07    3.887e-06    1.212e-04    3.666e-03  
  7.2000e-02    1.225e-07    4.016e-06    1.251e-04    3.723e-03  
  7.3000e-02    1.268e-07    4.149e-06    1.290e-04    3.880e-03  
  7.4000e-02    1.312e-07    4.287e-06    1.331e-04    3.979e-03  
  7.5000e-02    1.358e-07    4.428e-06    1.373e-04    4.050e-03  
  7.6000e-02    1.405e-07    4.574e-06    1.416e-04    4.178e-03  
  7.7000e-02    1.454e-07    4.725e-06    1.459e-04    4.320e-03  
  7.8000e-02    1.505e-07    4.880e-06    1.505e-04    4.349e-03  
  7.9000e-02    1.557e-07    5.040e-06    1.551e-04    4.547e-03  
  8.0000e-02    1.610e-07    5.204e-06    1.599e-04    4.647e-03  
  8.1000e-02    1.666e-07    5.374e-06    1.648e-04    4.732e-03  
  8.2000e-02    1.723e-07    5.549e-06    1.697e-04    4.917e-03  
  8.3000e-02    1.782e-07    5.729e-06    1.749e-04    4.917e-03  
  8.4000e-02    1.843e-07    5.915e-06    1.802e-04    5.173e-03  
  8.5000e-02    1.906e-07    6.106e-06    1.855e-04    5.286e-03  
  8.6000e-02    1.971e-07    6.302e-06    1.910e-04    5.315e-03  
  8.7000e-02    2.039e-07    6.505e-06    1.967e-04    5.528e-03  
  8.8000e-02    2.108e-07    6.713e-06    2.024e-04    5.699e-03  
  8.9000e-02    2.179e-07    6.928e-06    2.083e-04    5.713e-03  
  9.0000e-02    2.253e-07    7.148e-06    2.145e-04    5.926e-03  
  9.1000e-02    2.329e-07    7.375e-06    2.206e-04    6.139e-03  
  9.2000e-02    2.408e-07    7.609e-06    2.269e-04    6.096e-03  
  9.3000e-02    2.489e-07    7.849e-06    2.335e-04    6.366e-03  
  9.4000e-02    2.572e-07    8.095e-06    2.400e-04    6.537e-03  
  9.5000e-02    2.658e-07    8.349e-06    2.469e-04    6.565e-03  
  9.6000e-02    2.747e-07    8.610e-06    2.537e-04    6.835e-03  
  9.7000e-02    2.838e-07    8.878e-06    2.609e-04    6.835e-03  
  9.8000e-02    2.933e-07    9.154e-06    2.680e-04    7.148e-03  
  9.9000e-02    3.030e-07    9.436e-06    2.755e-04    7.191e-03  
    0.10000     3.130e-07    9.727e-06    2.829e-04    7.418e-03  
y
x

        volt    param      
                    gx4    
   -0.10000     4.263e-04  
 -9.9000e-02    3.752e-02  
 -9.8000e-02     -0.6584   
 -9.7000e-02    -18.8754   
 -9.6000e-02   -3.134e+05  
 -9.5000e-02    9.504e+05  
 -9.4000e-02   -9.608e+05  
 -9.3000e-02    3.238e+05  
 -9.2000e-02    1.421e-02  
 -9.1000e-02     -0.2700   
 -9.0000e-02     -0.1137   
 -8.9000e-02     -0.1563   
 -8.8000e-02     -0.1421   
 -8.7000e-02     -0.1279   
 -8.6000e-02     -0.1847   
 -8.5000e-02     -0.1990   
 -8.4000e-02    2.842e-02  
 -8.3000e-02     -0.3411   
 -8.2000e-02    8.674e-13  
 -8.1000e-02     -0.2274   
 -8.0000e-02   -9.948e-02  
 -7.9000e-02     -0.1705   
 -7.8000e-02   -5.684e-02  
 -7.7000e-02     -0.2274   
 -7.6000e-02   -7.105e-02  
 -7.5000e-02     -0.1563   
 -7.4000e-02     -0.1137   
 -7.3000e-02     -0.1421   
 -7.2000e-02   -9.948e-02  
 -7.1000e-02     -0.1421   
 -7.0000e-02     -0.1137   
 -6.9000e-02     -0.1279   
 -6.8000e-02   -8.527e-02  
 -6.7000e-02     -0.1279   
 -6.6000e-02     -0.1137   
 -6.5000e-02     -0.1137   
 -6.4000e-02     -0.1137   
 -6.3000e-02   -7.105e-02  
 -6.2000e-02     -0.1421   
 -6.1000e-02   -5.684e-02  
 -6.0000e-02   -9.948e-02  
 -5.9000e-02     -0.1918   
 -5.8000e-02    7.105e-02  
 -5.7000e-02     -0.2203   
 -5.6000e-02   -2.842e-02  
 -5.5000e-02     -0.1421   
 -5.4000e-02   -6.583e-13  
 -5.3000e-02     -0.1350   
 -5.2000e-02     -0.1066   
 -5.1000e-02    7.105e-03  
 -5.0000e-02     -0.1492   
 -4.9000e-02   -4.263e-02  
 -4.8000e-02   -7.105e-02  
 -4.7000e-02   -6.395e-02  
 -4.6000e-02   -9.237e-02  
 -4.5000e-02   -2.842e-02  
 -4.4000e-02   -9.237e-02  
 -4.3000e-02   -4.263e-02  
 -4.2000e-02   -4.263e-02  
 -4.1000e-02   -9.237e-02  
 -4.0000e-02   -4.267e-13  
 -3.9000e-02     -0.1208   
 -3.8000e-02    2.842e-02  
 -3.7000e-02     -0.1066   
 -3.6000e-02   -3.254e-11  
 -3.5000e-02   -7.816e-02  
 -3.4000e-02   -1.421e-02  
 -3.3000e-02   -4.263e-02  
 -3.2000e-02   -1.421e-02  
 -3.1000e-02   -8.527e-02  
 -3.0000e-02    2.842e-02  
 -2.9000e-02   -6.395e-02  
 -2.8000e-02   -2.487e-02  
 -2.7000e-02    6.722e-15  
 -2.6000e-02   -6.040e-02  
 -2.5000e-02    7.105e-03  
 -2.4000e-02   -2.487e-02  
 -2.3000e-02   -4.263e-02  
 -2.2000e-02    1.066e-02  
 -2.1000e-02   -4.974e-02  
 -2.0000e-02   -3.553e-03  
 -1.9000e-02   -2.132e-02  
 -1.8000e-02   -3.553e-02  
 -1.7000e-02   -7.105e-03  
 -1.6000e-02   -3.908e-02  
 -1.5000e-02   -1.066e-02  
 -1.4000e-02   -3.908e-02  
 -1.3000e-02   -3.908e-02  
 -1.2000e-02   -2.842e-02  
 -1.1000e-02   -3.553e-02  
 -1.0000e-02   -4.619e-02  
 -9.0000e-03   -5.507e-02  
 -8.0000e-03   -6.573e-02  
 -7.0000e-03   -5.862e-02  
 -6.0000e-03   -9.592e-02  
 -5.0000e-03   -7.816e-02  
 -4.0000e-03     -0.1004   
 -3.0000e-03     -0.1030   
 -2.0000e-03     -0.1066   
 -1.0000e-03   -8.882e-02  
    0.         -8.882e-02  
  1.0000e-03   -7.194e-02  
  2.0000e-03   -2.376e-02  
  3.0000e-03    4.219e-03  
  4.0000e-03    7.977e-02  
  5.0000e-03      0.2061   
  6.0000e-03   -1.214e-04  
  7.0000e-03     -0.2052   
  8.0000e-03   -7.966e-02  
  9.0000e-03   -9.992e-03  
  1.0000e-02    3.442e-02  
  1.1000e-02    6.573e-02  
  1.2000e-02    8.571e-02  
  1.3000e-02    9.326e-02  
  1.4000e-02      0.1092   
  1.5000e-02    9.681e-02  
  1.6000e-02    9.770e-02  
  1.7000e-02    9.237e-02  
  1.8000e-02    8.527e-02  
  1.9000e-02    5.507e-02  
  2.0000e-02    7.994e-02  
  2.1000e-02    4.086e-02  
  2.2000e-02    4.796e-02  
  2.3000e-02    3.553e-02  
  2.4000e-02    4.619e-02  
  2.5000e-02    2.487e-02  
  2.6000e-02    2.132e-02  
  2.7000e-02    4.619e-02  
  2.8000e-02    1.066e-02  
  2.9000e-02    1.421e-02  
  3.0000e-02    5.329e-02  
  3.1000e-02   -7.105e-03  
  3.2000e-02    3.908e-02  
  3.3000e-02    3.553e-03  
  3.4000e-02    3.197e-02  
  3.5000e-02    1.776e-02  
  3.6000e-02    2.132e-02  
  3.7000e-02    2.842e-02  
  3.8000e-02    1.421e-02  
  3.9000e-02    2.842e-02  
  4.0000e-02    1.776e-02  
  4.1000e-02    5.684e-02  
  4.2000e-02    4.202e-13  
  4.3000e-02    4.263e-02  
  4.4000e-02    3.553e-02  
  4.5000e-02    5.684e-02  
  4.6000e-02   -1.657e-13  
  4.7000e-02    6.395e-02  
  4.8000e-02    1.421e-02  
  4.9000e-02      0.1208   
  5.0000e-02   -4.974e-02  
  5.1000e-02      0.1279   
  5.2000e-02    7.105e-03  
  5.3000e-02    7.816e-02  
  5.4000e-02    3.553e-02  
  5.5000e-02    7.105e-02  
  5.6000e-02    9.237e-02  
  5.7000e-02   -7.105e-03  
  5.8000e-02      0.1279   
  5.9000e-02    2.842e-02  
  6.0000e-02    9.948e-02  
  6.1000e-02    8.527e-02  
  6.2000e-02    1.421e-02  
  6.3000e-02      0.1350   
  6.4000e-02    5.684e-02  
  6.5000e-02    6.395e-02  
  6.6000e-02      0.1279   
  6.7000e-02    4.263e-02  
  6.8000e-02      0.1066   
  6.9000e-02      0.1208   
  7.0000e-02    2.842e-02  
  7.1000e-02      0.1492   
  7.2000e-02    8.527e-02  
  7.3000e-02    5.684e-02  
  7.4000e-02      0.1563   
  7.5000e-02    9.948e-02  
  7.6000e-02    7.105e-02  
  7.7000e-02      0.1279   
  7.8000e-02      0.1421   
  7.9000e-02    2.842e-02  
  8.0000e-02      0.1990   
  8.1000e-02    9.948e-02  
  8.2000e-02    8.527e-02  
  8.3000e-02      0.1847   
  8.4000e-02   -8.674e-13  
  8.5000e-02      0.2558   
  8.6000e-02      0.1137   
  8.7000e-02    2.842e-02  
  8.8000e-02      0.2132   
  8.9000e-02      0.1705   
  9.0000e-02    1.421e-02  
  9.1000e-02      0.2132   
  9.2000e-02      0.2132   
  9.3000e-02   -4.263e-02  
  9.4000e-02      0.2700   
  9.5000e-02      0.1705   
  9.6000e-02    2.842e-02  
  9.7000e-02      0.2700   
  9.8000e-02      0.       
  9.9000e-02      0.3126   
    0.10000     4.263e-02  
y
-----------------------------------------------
 ******  
 *sample netlist for bsim-mg

  ******  dc transfer curves tnom=  25.000 temp=  25.000 *****

   *** source        0:vgate =   -0.4000        ***

x

        volt    param        param        param        param      
                    ids          gx           gx2          gx3    
   -0.10000    -1.981e-05   -3.130e-06   -9.727e-05   -2.829e-03  
 -9.9000e-02   -1.954e-05   -2.012e-02   -1.286e-02     -0.3802   
 -9.8000e-02   -1.927e-05    2.688e-04    -20.1160     -12.7602   
 -9.7000e-02   -1.901e-05    2.668e-04     20.3880    -2.010e+04  
 -9.6000e-02   -1.874e-05    2.648e-04   -2.030e-03    4.050e+04  
 -9.5000e-02   -1.848e-05    2.628e-04   -2.022e-03   -2.039e+04  
 -9.4000e-02   -1.822e-05    2.608e-04   -2.014e-03    8.015e-03  
 -9.3000e-02   -1.797e-05    2.588e-04   -2.006e-03    8.200e-03  
 -9.2000e-02   -1.771e-05    2.568e-04   -1.997e-03    8.498e-03  
 -9.1000e-02   -1.746e-05    2.548e-04   -1.988e-03    8.654e-03  
 -9.0000e-02   -1.721e-05    2.528e-04   -1.979e-03    8.725e-03  
 -8.9000e-02   -1.696e-05    2.509e-04   -1.970e-03    9.166e-03  
 -8.8000e-02   -1.671e-05    2.489e-04   -1.960e-03    9.223e-03  
 -8.7000e-02   -1.647e-05    2.470e-04   -1.951e-03    9.521e-03  
 -8.6000e-02   -1.622e-05    2.451e-04   -1.941e-03    9.692e-03  
 -8.5000e-02   -1.598e-05    2.431e-04   -1.931e-03    1.000e-02  
 -8.4000e-02   -1.574e-05    2.412e-04   -1.920e-03    1.019e-02  
 -8.3000e-02   -1.551e-05    2.393e-04   -1.909e-03    1.059e-02  
 -8.2000e-02   -1.527e-05    2.374e-04   -1.898e-03    1.069e-02  
 -8.1000e-02   -1.504e-05    2.356e-04   -1.887e-03    1.110e-02  
 -8.0000e-02   -1.480e-05    2.337e-04   -1.875e-03    1.135e-02  
 -7.9000e-02   -1.457e-05    2.319e-04   -1.863e-03    1.165e-02  
 -7.8000e-02   -1.435e-05    2.300e-04   -1.851e-03    1.194e-02  
 -7.7000e-02   -1.412e-05    2.282e-04   -1.838e-03    1.239e-02  
 -7.6000e-02   -1.390e-05    2.264e-04   -1.825e-03    1.262e-02  
 -7.5000e-02   -1.367e-05    2.246e-04   -1.812e-03    1.303e-02  
 -7.4000e-02   -1.345e-05    2.228e-04   -1.798e-03    1.342e-02  
 -7.3000e-02   -1.323e-05    2.210e-04   -1.784e-03    1.376e-02  
 -7.2000e-02   -1.301e-05    2.193e-04   -1.769e-03    1.427e-02  
 -7.1000e-02   -1.280e-05    2.175e-04   -1.754e-03    1.461e-02  
 -7.0000e-02   -1.259e-05    2.158e-04   -1.739e-03    1.506e-02  
 -6.9000e-02   -1.237e-05    2.141e-04   -1.723e-03    1.558e-02  
 -6.8000e-02   -1.216e-05    2.124e-04   -1.706e-03    1.599e-02  
 -6.7000e-02   -1.195e-05    2.107e-04   -1.689e-03    1.656e-02  
 -6.6000e-02   -1.175e-05    2.091e-04   -1.671e-03    1.708e-02  
 -6.5000e-02   -1.154e-05    2.075e-04   -1.653e-03    1.759e-02  
 -6.4000e-02   -1.134e-05    2.058e-04   -1.634e-03    1.816e-02  
 -6.3000e-02   -1.113e-05    2.042e-04   -1.615e-03    1.883e-02  
 -6.2000e-02   -1.093e-05    2.027e-04   -1.595e-03    1.937e-02  
 -6.1000e-02   -1.073e-05    2.011e-04   -1.574e-03    2.006e-02  
 -6.0000e-02   -1.053e-05    1.996e-04   -1.553e-03    2.078e-02  
 -5.9000e-02   -1.034e-05    1.981e-04   -1.531e-03    2.143e-02  
 -5.8000e-02   -1.014e-05    1.966e-04   -1.508e-03    2.215e-02  
 -5.7000e-02   -9.948e-06    1.951e-04   -1.484e-03    2.298e-02  
 -5.6000e-02   -9.756e-06    1.937e-04   -1.459e-03    2.374e-02  
 -5.5000e-02   -9.565e-06    1.923e-04   -1.434e-03    2.460e-02  
 -5.4000e-02   -9.376e-06    1.909e-04   -1.407e-03    2.544e-02  
 -5.3000e-02   -9.187e-06    1.896e-04   -1.380e-03    2.635e-02  
 -5.2000e-02   -9.000e-06    1.882e-04   -1.352e-03    2.728e-02  
 -5.1000e-02   -8.815e-06    1.870e-04   -1.323e-03    2.829e-02  
 -5.0000e-02   -8.630e-06    1.857e-04   -1.292e-03    2.922e-02  
 -4.9000e-02   -8.447e-06    1.845e-04   -1.261e-03    3.033e-02  
 -4.8000e-02   -8.265e-06    1.833e-04   -1.228e-03    3.142e-02  
 -4.7000e-02   -8.084e-06    1.821e-04   -1.195e-03    3.250e-02  
 -4.6000e-02   -7.904e-06    1.810e-04   -1.160e-03    3.367e-02  
 -4.5000e-02   -7.725e-06    1.799e-04   -1.124e-03    3.490e-02  
 -4.4000e-02   -7.547e-06    1.789e-04   -1.086e-03    3.607e-02  
 -4.3000e-02   -7.370e-06    1.778e-04   -1.048e-03    3.736e-02  
 -4.2000e-02   -7.194e-06    1.769e-04   -1.008e-03    3.870e-02  
 -4.1000e-02   -7.019e-06    1.760e-04   -9.664e-04    3.996e-02  
 -4.0000e-02   -6.845e-06    1.751e-04   -9.236e-04    4.135e-02  
 -3.9000e-02   -6.672e-06    1.742e-04   -8.795e-04    4.272e-02  
 -3.8000e-02   -6.499e-06    1.735e-04   -8.340e-04    4.411e-02  
 -3.7000e-02   -6.327e-06    1.727e-04   -7.871e-04    4.552e-02  
 -3.6000e-02   -6.155e-06    1.720e-04   -7.387e-04    4.692e-02  
 -3.5000e-02   -5.985e-06    1.714e-04   -6.890e-04    4.836e-02  
 -3.4000e-02   -5.814e-06    1.708e-04   -6.379e-04    4.970e-02  
 -3.3000e-02   -5.645e-06    1.703e-04   -5.855e-04    5.114e-02  
 -3.2000e-02   -5.475e-06    1.698e-04   -5.318e-04    5.242e-02  
 -3.1000e-02   -5.306e-06    1.694e-04   -4.769e-04    5.367e-02  
 -3.0000e-02   -5.138e-06    1.690e-04   -4.210e-04    5.492e-02  
 -2.9000e-02   -4.969e-06    1.687e-04   -3.640e-04    5.593e-02  
 -2.8000e-02   -4.801e-06    1.685e-04   -3.063e-04    5.697e-02  
 -2.7000e-02   -4.633e-06    1.683e-04   -2.479e-04    5.772e-02  
 -2.6000e-02   -4.465e-06    1.681e-04   -1.892e-04    5.836e-02  
 -2.5000e-02   -4.297e-06    1.681e-04   -1.303e-04    5.874e-02  
 -2.4000e-02   -4.128e-06    1.680e-04   -7.160e-05    5.888e-02  
 -2.3000e-02   -3.960e-06    1.681e-04   -1.349e-05    5.868e-02  
 -2.2000e-02   -3.792e-06    1.682e-04    4.372e-05    5.812e-02  
 -2.1000e-02   -3.623e-06    1.683e-04    9.950e-05    5.721e-02  
 -2.0000e-02   -3.455e-06    1.686e-04    1.534e-04    5.578e-02  
 -1.9000e-02   -3.285e-06    1.688e-04    2.048e-04    5.390e-02  
 -1.8000e-02   -3.116e-06    1.691e-04    2.533e-04    5.144e-02  
 -1.7000e-02   -2.946e-06    1.694e-04    2.981e-04    4.846e-02  
 -1.6000e-02   -2.776e-06    1.698e-04    3.386e-04    4.479e-02  
 -1.5000e-02   -2.605e-06    1.702e-04    3.743e-04    4.056e-02  
 -1.4000e-02   -2.434e-06    1.706e-04    4.044e-04    3.563e-02  
 -1.3000e-02   -2.263e-06    1.711e-04    4.284e-04    3.014e-02  
 -1.2000e-02   -2.091e-06    1.715e-04    4.457e-04    2.396e-02  
 -1.1000e-02   -1.918e-06    1.720e-04    4.558e-04    1.729e-02  
 -1.0000e-02   -1.745e-06    1.725e-04    4.582e-04    1.009e-02  
 -9.0000e-03   -1.572e-06    1.729e-04    4.529e-04    2.483e-03  
 -8.0000e-03   -1.398e-06    1.733e-04    4.395e-04   -5.382e-03  
 -7.0000e-03   -1.224e-06    1.737e-04    4.181e-04   -1.339e-02  
 -6.0000e-03   -1.050e-06    1.741e-04    3.890e-04   -2.136e-02  
 -5.0000e-03   -8.753e-07    1.744e-04    3.527e-04   -2.910e-02  
 -4.0000e-03   -7.004e-07    1.746e-04    3.098e-04   -3.634e-02  
 -3.0000e-03   -5.254e-07    1.748e-04    2.616e-04   -4.282e-02  
 -2.0000e-03   -3.503e-07    1.750e-04    2.095e-04   -4.823e-02  
 -1.0000e-03   -1.752e-07    1.751e-04    1.554e-04   -5.213e-02  
    0.          1.698e-13    1.752e-04    1.022e-04   -5.405e-02  
  1.0000e-03    1.752e-07    1.752e-04    5.356e-05   -5.326e-02  
  2.0000e-03    3.503e-07    1.752e-04    1.590e-05   -4.861e-02  
  3.0000e-03    5.254e-07    1.752e-04    2.132e-10   -3.766e-02  
  4.0000e-03    7.004e-07    1.751e-04   -1.590e-05   -1.590e-02  
  5.0000e-03    8.753e-07    1.750e-04   -5.356e-05   -1.590e-02  
  6.0000e-03    1.050e-06    1.748e-04   -1.022e-04   -3.765e-02  
  7.0000e-03    1.224e-06    1.746e-04   -1.554e-04   -4.861e-02  
  8.0000e-03    1.398e-06    1.744e-04   -2.095e-04   -5.326e-02  
  9.0000e-03    1.572e-06    1.741e-04   -2.616e-04   -5.405e-02  
  1.0000e-02    1.745e-06    1.737e-04   -3.098e-04   -5.214e-02  
  1.1000e-02    1.918e-06    1.733e-04   -3.527e-04   -4.822e-02  
  1.2000e-02    2.091e-06    1.729e-04   -3.890e-04   -4.282e-02  
  1.3000e-02    2.263e-06    1.725e-04   -4.181e-04   -3.635e-02  
  1.4000e-02    2.434e-06    1.720e-04   -4.395e-04   -2.909e-02  
  1.5000e-02    2.605e-06    1.715e-04   -4.529e-04   -2.136e-02  
  1.6000e-02    2.776e-06    1.711e-04   -4.582e-04   -1.340e-02  
  1.7000e-02    2.946e-06    1.706e-04   -4.557e-04   -5.381e-03  
  1.8000e-02    3.116e-06    1.702e-04   -4.457e-04    2.489e-03  
  1.9000e-02    3.285e-06    1.698e-04   -4.284e-04    1.008e-02  
  2.0000e-02    3.455e-06    1.694e-04   -4.044e-04    1.728e-02  
  2.1000e-02    3.623e-06    1.691e-04   -3.743e-04    2.398e-02  
  2.2000e-02    3.792e-06    1.688e-04   -3.386e-04    3.013e-02  
  2.3000e-02    3.960e-06    1.686e-04   -2.981e-04    3.563e-02  
  2.4000e-02    4.128e-06    1.683e-04   -2.533e-04    4.056e-02  
  2.5000e-02    4.297e-06    1.682e-04   -2.048e-04    4.480e-02  
  2.6000e-02    4.465e-06    1.681e-04   -1.534e-04    4.844e-02  
  2.7000e-02    4.633e-06    1.680e-04   -9.950e-05    5.145e-02  
  2.8000e-02    4.801e-06    1.681e-04   -4.371e-05    5.389e-02  
  2.9000e-02    4.969e-06    1.681e-04    1.348e-05    5.578e-02  
  3.0000e-02    5.138e-06    1.683e-04    7.160e-05    5.720e-02  
  3.1000e-02    5.306e-06    1.685e-04    1.303e-04    5.812e-02  
  3.2000e-02    5.475e-06    1.687e-04    1.892e-04    5.867e-02  
  3.3000e-02    5.645e-06    1.690e-04    2.479e-04    5.889e-02  
  3.4000e-02    5.814e-06    1.694e-04    3.063e-04    5.872e-02  
  3.5000e-02    5.985e-06    1.698e-04    3.640e-04    5.837e-02  
  3.6000e-02    6.155e-06    1.703e-04    4.209e-04    5.773e-02  
  3.7000e-02    6.327e-06    1.708e-04    4.769e-04    5.693e-02  
  3.8000e-02    6.499e-06    1.714e-04    5.318e-04    5.600e-02  
  3.9000e-02    6.672e-06    1.720e-04    5.855e-04    5.488e-02  
  4.0000e-02    6.845e-06    1.727e-04    6.379e-04    5.368e-02  
  4.1000e-02    7.019e-06    1.735e-04    6.890e-04    5.243e-02  
  4.2000e-02    7.194e-06    1.742e-04    7.387e-04    5.110e-02  
  4.3000e-02    7.370e-06    1.751e-04    7.871e-04    4.972e-02  
  4.4000e-02    7.547e-06    1.760e-04    8.340e-04    4.835e-02  
  4.5000e-02    7.725e-06    1.769e-04    8.795e-04    4.693e-02  
  4.6000e-02    7.904e-06    1.778e-04    9.236e-04    4.550e-02  
  4.7000e-02    8.084e-06    1.789e-04    9.664e-04    4.412e-02  
  4.8000e-02    8.265e-06    1.799e-04    1.008e-03    4.270e-02  
  4.9000e-02    8.447e-06    1.810e-04    1.048e-03    4.136e-02  
  5.0000e-02    8.630e-06    1.821e-04    1.086e-03    3.998e-02  
  5.1000e-02    8.815e-06    1.833e-04    1.124e-03    3.867e-02  
  5.2000e-02    9.000e-06    1.845e-04    1.160e-03    3.737e-02  
  5.3000e-02    9.187e-06    1.857e-04    1.195e-03    3.605e-02  
  5.4000e-02    9.376e-06    1.870e-04    1.228e-03    3.492e-02  
  5.5000e-02    9.565e-06    1.882e-04    1.261e-03    3.366e-02  
  5.6000e-02    9.756e-06    1.896e-04    1.292e-03    3.254e-02  
  5.7000e-02    9.948e-06    1.909e-04    1.323e-03    3.136e-02  
  5.8000e-02    1.014e-05    1.923e-04    1.352e-03    3.033e-02  
  5.9000e-02    1.034e-05    1.937e-04    1.380e-03    2.928e-02  
  6.0000e-02    1.053e-05    1.951e-04    1.407e-03    2.827e-02  
  6.1000e-02    1.073e-05    1.966e-04    1.434e-03    2.727e-02  
  6.2000e-02    1.093e-05    1.981e-04    1.459e-03    2.634e-02  
  6.3000e-02    1.113e-05    1.996e-04    1.484e-03    2.549e-02  
  6.4000e-02    1.134e-05    2.011e-04    1.508e-03    2.455e-02  
  6.5000e-02    1.154e-05    2.027e-04    1.531e-03    2.375e-02  
  6.6000e-02    1.175e-05    2.042e-04    1.553e-03    2.298e-02  
  6.7000e-02    1.195e-05    2.058e-04    1.574e-03    2.213e-02  
  6.8000e-02    1.216e-05    2.075e-04    1.595e-03    2.147e-02  
  6.9000e-02    1.237e-05    2.091e-04    1.615e-03    2.075e-02  
  7.0000e-02    1.259e-05    2.107e-04    1.634e-03    2.002e-02  
  7.1000e-02    1.280e-05    2.124e-04    1.653e-03    1.945e-02  
  7.2000e-02    1.301e-05    2.141e-04    1.671e-03    1.877e-02  
  7.3000e-02    1.323e-05    2.158e-04    1.689e-03    1.818e-02  
  7.4000e-02    1.345e-05    2.175e-04    1.706e-03    1.759e-02  
  7.5000e-02    1.367e-05    2.193e-04    1.723e-03    1.708e-02  
  7.6000e-02    1.390e-05    2.210e-04    1.739e-03    1.656e-02  
  7.7000e-02    1.412e-05    2.228e-04    1.754e-03    1.599e-02  
  7.8000e-02    1.435e-05    2.246e-04    1.769e-03    1.558e-02  
  7.9000e-02    1.457e-05    2.264e-04    1.784e-03    1.505e-02  
  8.0000e-02    1.480e-05    2.282e-04    1.798e-03    1.469e-02  
  8.1000e-02    1.504e-05    2.300e-04    1.812e-03    1.413e-02  
  8.2000e-02    1.527e-05    2.319e-04    1.825e-03    1.384e-02  
  8.3000e-02    1.551e-05    2.337e-04    1.838e-03    1.340e-02  
  8.4000e-02    1.574e-05    2.356e-04    1.851e-03    1.300e-02  
  8.5000e-02    1.598e-05    2.374e-04    1.863e-03    1.272e-02  
  8.6000e-02    1.622e-05    2.393e-04    1.875e-03    1.226e-02  
  8.7000e-02    1.647e-05    2.412e-04    1.887e-03    1.198e-02  
  8.8000e-02    1.671e-05    2.431e-04    1.898e-03    1.170e-02  
  8.9000e-02    1.696e-05    2.451e-04    1.909e-03    1.135e-02  
  9.0000e-02    1.721e-05    2.470e-04    1.920e-03    1.103e-02  
  9.1000e-02    1.746e-05    2.489e-04    1.931e-03    1.077e-02  
  9.2000e-02    1.771e-05    2.509e-04    1.941e-03    1.052e-02  
  9.3000e-02    1.797e-05    2.528e-04    1.951e-03    1.020e-02  
  9.4000e-02    1.822e-05    2.548e-04    1.960e-03    1.002e-02  
  9.5000e-02    1.848e-05    2.568e-04    1.970e-03    9.720e-03  
  9.6000e-02    1.874e-05    2.588e-04    1.979e-03    9.464e-03  
  9.7000e-02    1.901e-05    2.608e-04    1.988e-03    9.308e-03  
  9.8000e-02    1.927e-05    2.628e-04    1.997e-03    9.024e-03  
  9.9000e-02    1.954e-05    2.648e-04    2.006e-03    8.868e-03  
    0.10000     1.981e-05    2.668e-04    2.014e-03    8.583e-03  
y
x

        volt    param      
                    gx4    
   -0.10000    -7.418e-02  
 -9.9000e-02    -10.2473   
 -9.8000e-02   -377.3656   
 -9.7000e-02   -1.238e+04  
 -9.6000e-02   -2.009e+07  
 -9.5000e-02    6.060e+07  
 -9.4000e-02   -6.089e+07  
 -9.3000e-02    2.039e+07  
 -9.2000e-02      0.1847   
 -9.1000e-02      0.2984   
 -9.0000e-02      0.1563   
 -8.9000e-02    7.105e-02  
 -8.8000e-02      0.4405   
 -8.7000e-02    5.684e-02  
 -8.6000e-02      0.2984   
 -8.5000e-02      0.1705   
 -8.4000e-02      0.3126   
 -8.3000e-02      0.1847   
 -8.2000e-02      0.3979   
 -8.1000e-02    9.948e-02  
 -8.0000e-02      0.4121   
 -7.9000e-02      0.2558   
 -7.8000e-02      0.2984   
 -7.7000e-02      0.2842   
 -7.6000e-02      0.4547   
 -7.5000e-02      0.2274   
 -7.4000e-02      0.4121   
 -7.3000e-02      0.3837   
 -7.2000e-02      0.3411   
 -7.1000e-02      0.5116   
 -7.0000e-02      0.3411   
 -6.9000e-02      0.4547   
 -6.8000e-02      0.5116   
 -6.7000e-02      0.4121   
 -6.6000e-02      0.5684   
 -6.5000e-02      0.5258   
 -6.4000e-02      0.5116   
 -6.3000e-02      0.5684   
 -6.2000e-02      0.6679   
 -6.1000e-02      0.5400   
 -6.0000e-02      0.6892   
 -5.9000e-02      0.7176   
 -5.8000e-02      0.6537   
 -5.7000e-02      0.7176   
 -5.6000e-02      0.8313   
 -5.5000e-02      0.7603   
 -5.4000e-02      0.8598   
 -5.3000e-02      0.8384   
 -5.2000e-02      0.9166   
 -5.1000e-02      0.9237   
 -5.0000e-02      1.0161   
 -4.9000e-02      0.9308   
 -4.8000e-02      1.1084   
 -4.7000e-02      1.0871   
 -4.6000e-02      1.0800   
 -4.5000e-02      1.1724   
 -4.4000e-02      1.2292   
 -4.3000e-02      1.1724   
 -4.2000e-02      1.2861   
 -4.1000e-02      1.3358   
 -4.0000e-02      1.2648   
 -3.9000e-02      1.3856   
 -3.8000e-02      1.3785   
 -3.7000e-02      1.3856   
 -3.6000e-02      1.4069   
 -3.5000e-02      1.4069   
 -3.4000e-02      1.4353   
 -3.3000e-02      1.3358   
 -3.2000e-02      1.4424   
 -3.1000e-02      1.2790   
 -3.0000e-02      1.2506   
 -2.9000e-02      1.2577   
 -2.8000e-02      1.0054   
 -2.7000e-02      1.0445   
 -2.6000e-02      0.7425   
 -2.5000e-02      0.6466   
 -2.4000e-02      0.3766   
 -2.3000e-02      0.1386   
 -2.2000e-02     -0.2025   
 -2.1000e-02     -0.5613   
 -2.0000e-02     -0.9059   
 -1.9000e-02     -1.4317   
 -1.8000e-02     -1.8794   
 -1.7000e-02     -2.4585   
 -1.6000e-02     -2.9843   
 -1.5000e-02     -3.6628   
 -1.4000e-02     -4.2313   
 -1.3000e-02     -4.9276   
 -1.2000e-02     -5.4943   
 -1.1000e-02     -6.1799   
 -1.0000e-02     -6.6738   
 -9.0000e-03     -7.1978   
 -8.0000e-03     -7.6046   
 -7.0000e-03     -7.8657   
 -6.0000e-03     -8.0096   
 -5.0000e-03     -7.9723   
 -4.0000e-03     -7.7325   
 -3.0000e-03     -7.2475   
 -2.0000e-03     -6.4713   
 -1.0000e-03     -5.4117   
    0.           -3.9062   
  1.0000e-03     -1.9149   
  2.0000e-03      0.7903   
  3.0000e-03      4.6443   
  4.0000e-03     10.9581   
  5.0000e-03     21.7531   
  6.0000e-03   -9.727e-04  
  7.0000e-03    -21.7511   
  8.0000e-03    -10.9582   
  9.0000e-03     -4.6482   
  1.0000e-02     -0.7865   
  1.1000e-02      1.9109   
  1.2000e-02      3.9182   
  1.3000e-02      5.3966   
  1.4000e-02      6.4757   
  1.5000e-02      7.2538   
  1.6000e-02      7.7298   
  1.7000e-02      7.9634   
  1.8000e-02      8.0185   
  1.9000e-02      7.8693   
  2.0000e-02      7.5957   
  2.1000e-02      7.1925   
  2.2000e-02      6.7022   
  2.3000e-02      6.1497   
  2.4000e-02      5.5014   
  2.5000e-02      4.9347   
  2.6000e-02      4.2348   
  2.7000e-02      3.6380   
  2.8000e-02      3.0163   
  2.9000e-02      2.4407   
  3.0000e-02      1.8900   
  3.1000e-02      1.4104   
  3.2000e-02      0.9273   
  3.3000e-02      0.5507   
  3.4000e-02      0.2203   
  3.5000e-02     -0.1741   
  3.6000e-02     -0.3446   
  3.7000e-02     -0.6430   
  3.8000e-02     -0.8029   
  3.9000e-02     -0.9308   
  4.0000e-02     -1.1227   
  4.1000e-02     -1.1937   
  4.2000e-02     -1.2506   
  4.3000e-02     -1.3287   
  4.4000e-02     -1.3785   
  4.5000e-02     -1.3713   
  4.6000e-02     -1.4211   
  4.7000e-02     -1.4282   
  4.8000e-02     -1.3785   
  4.9000e-02     -1.4211   
  5.0000e-02     -1.3429   
  5.1000e-02     -1.3856   
  5.2000e-02     -1.3003   
  5.3000e-02     -1.3003   
  5.4000e-02     -1.3216   
  5.5000e-02     -1.1298   
  5.6000e-02     -1.2648   
  5.7000e-02     -1.1156   
  5.8000e-02     -1.1795   
  5.9000e-02     -1.0374   
  6.0000e-02     -1.0445   
  6.1000e-02     -1.0161   
  6.2000e-02     -0.9948   
  6.3000e-02     -0.9308   
  6.4000e-02     -0.8455   
  6.5000e-02     -0.9450   
  6.6000e-02     -0.7958   
  6.7000e-02     -0.7745   
  6.8000e-02     -0.8455   
  6.9000e-02     -0.6608   
  7.0000e-02     -0.7248   
  7.1000e-02     -0.7319   
  7.2000e-02     -0.5613   
  7.3000e-02     -0.6821   
  7.4000e-02     -0.5969   
  7.5000e-02     -0.5826   
  7.6000e-02     -0.5116   
  7.7000e-02     -0.5258   
  7.8000e-02     -0.5684   
  7.9000e-02     -0.4121   
  8.0000e-02     -0.5258   
  8.1000e-02     -0.3553   
  8.2000e-02     -0.5684   
  8.3000e-02     -0.2842   
  8.4000e-02     -0.4405   
  8.5000e-02     -0.3979   
  8.6000e-02     -0.2842   
  8.7000e-02     -0.4547   
  8.8000e-02     -0.2842   
  8.9000e-02     -0.2842   
  9.0000e-02     -0.3411   
  9.1000e-02     -0.3268   
  9.2000e-02     -0.2558   
  9.3000e-02     -0.2558   
  9.4000e-02     -0.3126   
  9.5000e-02     -0.1847   
  9.6000e-02     -0.2984   
  9.7000e-02     -0.2558   
  9.8000e-02     -0.1563   
  9.9000e-02     -0.2842   
    0.10000      -0.1563   
y
-----------------------------------------------
 ******  
 *sample netlist for bsim-mg

  ******  dc transfer curves tnom=  25.000 temp=  25.000 *****

   *** source        0:vgate =   -0.6000        ***

x

        volt    param        param        param        param      
                    ids          gx           gx2          gx3    
   -0.10000    -7.998e-05   -1.981e-04   -2.668e-03   -2.014e-02  
 -9.9000e-02   -7.921e-05   -9.979e-02     -0.4649      -4.6824   
 -9.8000e-02   -7.844e-05    7.688e-04    -99.5884    -462.2106   
 -9.7000e-02   -7.768e-05    7.683e-04    100.5552    -9.912e+04  
 -9.6000e-02   -7.691e-05    7.679e-04   -4.645e-04    2.001e+05  
 -9.5000e-02   -7.614e-05    7.675e-04   -4.367e-04   -1.005e+05  
 -9.4000e-02   -7.537e-05    7.671e-04   -4.084e-04    2.780e-02  
 -9.3000e-02   -7.461e-05    7.668e-04   -3.794e-04    2.838e-02  
 -9.2000e-02   -7.384e-05    7.664e-04   -3.498e-04    2.895e-02  
 -9.1000e-02   -7.308e-05    7.661e-04   -3.195e-04    2.963e-02  
 -9.0000e-02   -7.231e-05    7.659e-04   -2.887e-04    3.028e-02  
 -8.9000e-02   -7.154e-05    7.657e-04   -2.572e-04    3.079e-02  
 -8.8000e-02   -7.078e-05    7.655e-04   -2.250e-04    3.153e-02  
 -8.7000e-02   -7.001e-05    7.653e-04   -1.922e-04    3.219e-02  
 -8.6000e-02   -6.925e-05    7.652e-04   -1.588e-04    3.277e-02  
 -8.5000e-02   -6.848e-05    7.651e-04   -1.247e-04    3.345e-02  
 -8.4000e-02   -6.772e-05    7.650e-04   -8.997e-05    3.411e-02  
 -8.3000e-02   -6.695e-05    7.650e-04   -5.454e-05    3.469e-02  
 -8.2000e-02   -6.619e-05    7.650e-04   -1.852e-05    3.543e-02  
 -8.1000e-02   -6.542e-05    7.651e-04    1.812e-05    3.602e-02  
 -8.0000e-02   -6.466e-05    7.652e-04    5.548e-05    3.664e-02  
 -7.9000e-02   -6.389e-05    7.653e-04    9.335e-05    3.736e-02  
 -7.8000e-02   -6.313e-05    7.655e-04    1.319e-04    3.787e-02  
 -7.7000e-02   -6.236e-05    7.657e-04    1.711e-04    3.857e-02  
 -7.6000e-02   -6.159e-05    7.660e-04    2.108e-04    3.919e-02  
 -7.5000e-02   -6.083e-05    7.662e-04    2.512e-04    3.966e-02  
 -7.4000e-02   -6.006e-05    7.666e-04    2.920e-04    4.039e-02  
 -7.3000e-02   -5.929e-05    7.670e-04    3.335e-04    4.088e-02  
 -7.2000e-02   -5.853e-05    7.674e-04    3.754e-04    4.141e-02  
 -7.1000e-02   -5.776e-05    7.678e-04    4.179e-04    4.198e-02  
 -7.0000e-02   -5.699e-05    7.683e-04    4.608e-04    4.243e-02  
 -6.9000e-02   -5.622e-05    7.689e-04    5.041e-04    4.289e-02  
 -6.8000e-02   -5.545e-05    7.695e-04    5.479e-04    4.337e-02  
 -6.7000e-02   -5.468e-05    7.701e-04    5.920e-04    4.377e-02  
 -6.6000e-02   -5.391e-05    7.708e-04    6.364e-04    4.414e-02  
 -6.5000e-02   -5.313e-05    7.715e-04    6.811e-04    4.437e-02  
 -6.4000e-02   -5.236e-05    7.723e-04    7.261e-04    4.474e-02  
 -6.3000e-02   -5.159e-05    7.731e-04    7.713e-04    4.501e-02  
 -6.2000e-02   -5.081e-05    7.740e-04    8.165e-04    4.512e-02  
 -6.1000e-02   -5.004e-05    7.749e-04    8.618e-04    4.524e-02  
 -6.0000e-02   -4.926e-05    7.758e-04    9.071e-04    4.533e-02  
 -5.9000e-02   -4.848e-05    7.768e-04    9.524e-04    4.531e-02  
 -5.8000e-02   -4.770e-05    7.779e-04    9.975e-04    4.528e-02  
 -5.7000e-02   -4.692e-05    7.790e-04    1.042e-03    4.507e-02  
 -5.6000e-02   -4.614e-05    7.801e-04    1.087e-03    4.493e-02  
 -5.5000e-02   -4.536e-05    7.813e-04    1.131e-03    4.455e-02  
 -5.4000e-02   -4.458e-05    7.825e-04    1.175e-03    4.426e-02  
 -5.3000e-02   -4.379e-05    7.837e-04    1.218e-03    4.367e-02  
 -5.2000e-02   -4.300e-05    7.850e-04    1.261e-03    4.319e-02  
 -5.1000e-02   -4.222e-05    7.864e-04    1.302e-03    4.248e-02  
 -5.0000e-02   -4.143e-05    7.878e-04    1.343e-03    4.169e-02  
 -4.9000e-02   -4.064e-05    7.892e-04    1.383e-03    4.083e-02  
 -4.8000e-02   -3.984e-05    7.907e-04    1.422e-03    3.983e-02  
 -4.7000e-02   -3.905e-05    7.921e-04    1.459e-03    3.871e-02  
 -4.6000e-02   -3.826e-05    7.937e-04    1.495e-03    3.747e-02  
 -4.5000e-02   -3.746e-05    7.952e-04    1.530e-03    3.613e-02  
 -4.4000e-02   -3.666e-05    7.968e-04    1.563e-03    3.462e-02  
 -4.3000e-02   -3.586e-05    7.985e-04    1.594e-03    3.303e-02  
 -4.2000e-02   -3.506e-05    8.001e-04    1.624e-03    3.129e-02  
 -4.1000e-02   -3.425e-05    8.018e-04    1.651e-03    2.937e-02  
 -4.0000e-02   -3.345e-05    8.035e-04    1.676e-03    2.741e-02  
 -3.9000e-02   -3.264e-05    8.052e-04    1.699e-03    2.520e-02  
 -3.8000e-02   -3.183e-05    8.069e-04    1.720e-03    2.295e-02  
 -3.7000e-02   -3.102e-05    8.087e-04    1.738e-03    2.050e-02  
 -3.6000e-02   -3.021e-05    8.105e-04    1.753e-03    1.794e-02  
 -3.5000e-02   -2.940e-05    8.122e-04    1.765e-03    1.521e-02  
 -3.4000e-02   -2.858e-05    8.140e-04    1.775e-03    1.239e-02  
 -3.3000e-02   -2.776e-05    8.158e-04    1.781e-03    9.429e-03  
 -3.2000e-02   -2.694e-05    8.176e-04    1.784e-03    6.317e-03  
 -3.1000e-02   -2.612e-05    8.194e-04    1.784e-03    3.112e-03  
 -3.0000e-02   -2.530e-05    8.211e-04    1.780e-03   -2.629e-04  
 -2.9000e-02   -2.448e-05    8.229e-04    1.773e-03   -3.670e-03  
 -2.8000e-02   -2.365e-05    8.246e-04    1.762e-03   -7.269e-03  
 -2.7000e-02   -2.282e-05    8.264e-04    1.747e-03   -1.090e-02  
 -2.6000e-02   -2.199e-05    8.281e-04    1.729e-03   -1.464e-02  
 -2.5000e-02   -2.116e-05    8.298e-04    1.706e-03   -1.845e-02  
 -2.4000e-02   -2.033e-05    8.314e-04    1.680e-03   -2.235e-02  
 -2.3000e-02   -1.949e-05    8.330e-04    1.650e-03   -2.626e-02  
 -2.2000e-02   -1.866e-05    8.346e-04    1.616e-03   -3.023e-02  
 -2.1000e-02   -1.782e-05    8.361e-04    1.578e-03   -3.425e-02  
 -2.0000e-02   -1.698e-05    8.376e-04    1.535e-03   -3.821e-02  
 -1.9000e-02   -1.614e-05    8.391e-04    1.489e-03   -4.222e-02  
 -1.8000e-02   -1.530e-05    8.405e-04    1.439e-03   -4.614e-02  
 -1.7000e-02   -1.445e-05    8.418e-04    1.385e-03   -5.006e-02  
 -1.6000e-02   -1.361e-05    8.430e-04    1.328e-03   -5.386e-02  
 -1.5000e-02   -1.276e-05    8.442e-04    1.267e-03   -5.758e-02  
 -1.4000e-02   -1.192e-05    8.454e-04    1.202e-03   -6.117e-02  
 -1.3000e-02   -1.107e-05    8.464e-04    1.134e-03   -6.459e-02  
 -1.2000e-02   -1.022e-05    8.474e-04    1.063e-03   -6.782e-02  
 -1.1000e-02   -9.373e-06    8.483e-04    9.897e-04   -7.083e-02  
 -1.0000e-02   -8.523e-06    8.492e-04    9.137e-04   -7.358e-02  
 -9.0000e-03   -7.673e-06    8.499e-04    8.356e-04   -7.601e-02  
 -8.0000e-03   -6.822e-06    8.506e-04    7.558e-04   -7.810e-02  
 -7.0000e-03   -5.970e-06    8.512e-04    6.748e-04   -7.979e-02  
 -6.0000e-03   -5.118e-06    8.517e-04    5.931e-04   -8.099e-02  
 -5.0000e-03   -4.265e-06    8.521e-04    5.114e-04   -8.167e-02  
 -4.0000e-03   -3.412e-06    8.525e-04    4.304e-04   -8.170e-02  
 -3.0000e-03   -2.560e-06    8.528e-04    3.510e-04   -8.102e-02  
 -2.0000e-03   -1.706e-06    8.530e-04    2.741e-04   -7.944e-02  
 -1.0000e-03   -8.532e-07    8.531e-04    2.012e-04   -7.684e-02  
    0.          3.012e-13    8.532e-04    1.340e-04   -7.291e-02  
  1.0000e-03    8.532e-07    8.532e-04    7.480e-05   -6.725e-02  
  2.0000e-03    1.706e-06    8.532e-04    2.780e-05   -5.917e-02  
  3.0000e-03    2.560e-06    8.532e-04   -1.767e-10   -4.700e-02  
  4.0000e-03    3.412e-06    8.531e-04   -2.780e-05   -2.780e-02  
  5.0000e-03    4.265e-06    8.530e-04   -7.480e-05   -2.780e-02  
  6.0000e-03    5.118e-06    8.528e-04   -1.340e-04   -4.700e-02  
  7.0000e-03    5.970e-06    8.525e-04   -2.012e-04   -5.916e-02  
  8.0000e-03    6.822e-06    8.521e-04   -2.741e-04   -6.726e-02  
  9.0000e-03    7.673e-06    8.517e-04   -3.510e-04   -7.290e-02  
  1.0000e-02    8.523e-06    8.512e-04   -4.304e-04   -7.683e-02  
  1.1000e-02    9.373e-06    8.506e-04   -5.114e-04   -7.946e-02  
  1.2000e-02    1.022e-05    8.499e-04   -5.931e-04   -8.101e-02  
  1.3000e-02    1.107e-05    8.492e-04   -6.748e-04   -8.171e-02  
  1.4000e-02    1.192e-05    8.483e-04   -7.558e-04   -8.166e-02  
  1.5000e-02    1.276e-05    8.474e-04   -8.356e-04   -8.099e-02  
  1.6000e-02    1.361e-05    8.464e-04   -9.137e-04   -7.979e-02  
  1.7000e-02    1.445e-05    8.454e-04   -9.897e-04   -7.810e-02  
  1.8000e-02    1.530e-05    8.442e-04   -1.063e-03   -7.602e-02  
  1.9000e-02    1.614e-05    8.430e-04   -1.134e-03   -7.357e-02  
  2.0000e-02    1.698e-05    8.418e-04   -1.202e-03   -7.085e-02  
  2.1000e-02    1.782e-05    8.405e-04   -1.267e-03   -6.781e-02  
  2.2000e-02    1.866e-05    8.391e-04   -1.328e-03   -6.460e-02  
  2.3000e-02    1.949e-05    8.376e-04   -1.385e-03   -6.115e-02  
  2.4000e-02    2.033e-05    8.361e-04   -1.439e-03   -5.759e-02  
  2.5000e-02    2.116e-05    8.346e-04   -1.489e-03   -5.386e-02  
  2.6000e-02    2.199e-05    8.330e-04   -1.535e-03   -5.005e-02  
  2.7000e-02    2.282e-05    8.314e-04   -1.578e-03   -4.615e-02  
  2.8000e-02    2.365e-05    8.298e-04   -1.616e-03   -4.221e-02  
  2.9000e-02    2.448e-05    8.281e-04   -1.650e-03   -3.822e-02  
  3.0000e-02    2.530e-05    8.264e-04   -1.680e-03   -3.423e-02  
  3.1000e-02    2.612e-05    8.246e-04   -1.706e-03   -3.024e-02  
  3.2000e-02    2.694e-05    8.229e-04   -1.729e-03   -2.626e-02  
  3.3000e-02    2.776e-05    8.211e-04   -1.747e-03   -2.236e-02  
  3.4000e-02    2.858e-05    8.194e-04   -1.762e-03   -1.844e-02  
  3.5000e-02    2.940e-05    8.176e-04   -1.773e-03   -1.464e-02  
  3.6000e-02    3.021e-05    8.158e-04   -1.780e-03   -1.091e-02  
  3.7000e-02    3.102e-05    8.140e-04   -1.784e-03   -7.233e-03  
  3.8000e-02    3.183e-05    8.122e-04   -1.784e-03   -3.698e-03  
  3.9000e-02    3.264e-05    8.105e-04   -1.781e-03   -2.629e-04  
  4.0000e-02    3.345e-05    8.087e-04   -1.775e-03    3.126e-03  
  4.1000e-02    3.425e-05    8.069e-04   -1.765e-03    6.324e-03  
  4.2000e-02    3.506e-05    8.052e-04   -1.753e-03    9.386e-03  
  4.3000e-02    3.586e-05    8.035e-04   -1.738e-03    1.244e-02  
  4.4000e-02    3.666e-05    8.018e-04   -1.720e-03    1.517e-02  
  4.5000e-02    3.746e-05    8.001e-04   -1.699e-03    1.798e-02  
  4.6000e-02    3.826e-05    7.985e-04   -1.676e-03    2.048e-02  
  4.7000e-02    3.905e-05    7.968e-04   -1.651e-03    2.294e-02  
  4.8000e-02    3.984e-05    7.952e-04   -1.624e-03    2.522e-02  
  4.9000e-02    4.064e-05    7.937e-04   -1.594e-03    2.738e-02  
  5.0000e-02    4.143e-05    7.921e-04   -1.563e-03    2.940e-02  
  5.1000e-02    4.222e-05    7.907e-04   -1.530e-03    3.126e-02  
  5.2000e-02    4.300e-05    7.892e-04   -1.495e-03    3.305e-02  
  5.3000e-02    4.379e-05    7.878e-04   -1.459e-03    3.461e-02  
  5.4000e-02    4.458e-05    7.864e-04   -1.422e-03    3.613e-02  
  5.5000e-02    4.536e-05    7.850e-04   -1.383e-03    3.750e-02  
  5.6000e-02    4.614e-05    7.837e-04   -1.343e-03    3.865e-02  
  5.7000e-02    4.692e-05    7.825e-04   -1.302e-03    3.989e-02  
  5.8000e-02    4.770e-05    7.813e-04   -1.261e-03    4.078e-02  
  5.9000e-02    4.848e-05    7.801e-04   -1.218e-03    4.173e-02  
  6.0000e-02    4.926e-05    7.790e-04   -1.175e-03    4.245e-02  
  6.1000e-02    5.004e-05    7.779e-04   -1.131e-03    4.321e-02  
  6.2000e-02    5.081e-05    7.768e-04   -1.087e-03    4.368e-02  
  6.3000e-02    5.159e-05    7.758e-04   -1.042e-03    4.422e-02  
  6.4000e-02    5.236e-05    7.749e-04   -9.975e-04    4.460e-02  
  6.5000e-02    5.313e-05    7.740e-04   -9.524e-04    4.488e-02  
  6.6000e-02    5.391e-05    7.731e-04   -9.071e-04    4.511e-02  
  6.7000e-02    5.468e-05    7.723e-04   -8.619e-04    4.530e-02  
  6.8000e-02    5.545e-05    7.715e-04   -8.165e-04    4.525e-02  
  6.9000e-02    5.622e-05    7.708e-04   -7.712e-04    4.533e-02  
  7.0000e-02    5.699e-05    7.701e-04   -7.261e-04    4.531e-02  
  7.1000e-02    5.776e-05    7.695e-04   -6.812e-04    4.508e-02  
  7.2000e-02    5.853e-05    7.689e-04   -6.364e-04    4.499e-02  
  7.3000e-02    5.929e-05    7.683e-04   -5.920e-04    4.472e-02  
  7.4000e-02    6.006e-05    7.678e-04   -5.479e-04    4.444e-02  
  7.5000e-02    6.083e-05    7.674e-04   -5.041e-04    4.408e-02  
  7.6000e-02    6.159e-05    7.670e-04   -4.608e-04    4.380e-02  
  7.7000e-02    6.236e-05    7.666e-04   -4.179e-04    4.333e-02  
  7.8000e-02    6.313e-05    7.662e-04   -3.755e-04    4.293e-02  
  7.9000e-02    6.389e-05    7.660e-04   -3.334e-04    4.241e-02  
  8.0000e-02    6.466e-05    7.657e-04   -2.920e-04    4.201e-02  
  8.1000e-02    6.542e-05    7.655e-04   -2.511e-04    4.140e-02  
  8.2000e-02    6.619e-05    7.653e-04   -2.108e-04    4.090e-02  
  8.3000e-02    6.695e-05    7.652e-04   -1.711e-04    4.033e-02  
  8.4000e-02    6.772e-05    7.651e-04   -1.320e-04    3.976e-02  
  8.5000e-02    6.848e-05    7.650e-04   -9.337e-05    3.909e-02  
  8.6000e-02    6.925e-05    7.650e-04   -5.545e-05    3.860e-02  
  8.7000e-02    7.001e-05    7.650e-04   -1.812e-05    3.791e-02  
  8.8000e-02    7.078e-05    7.651e-04    1.853e-05    3.733e-02  
  8.9000e-02    7.154e-05    7.652e-04    5.454e-05    3.665e-02  
  9.0000e-02    7.231e-05    7.653e-04    8.994e-05    3.601e-02  
  9.1000e-02    7.308e-05    7.655e-04    1.247e-04    3.540e-02  
  9.2000e-02    7.384e-05    7.657e-04    1.588e-04    3.472e-02  
  9.3000e-02    7.461e-05    7.659e-04    1.922e-04    3.413e-02  
  9.4000e-02    7.537e-05    7.661e-04    2.250e-04    3.341e-02  
  9.5000e-02    7.614e-05    7.664e-04    2.572e-04    3.278e-02  
  9.6000e-02    7.691e-05    7.668e-04    2.887e-04    3.219e-02  
  9.7000e-02    7.768e-05    7.671e-04    3.195e-04    3.152e-02  
  9.8000e-02    7.844e-05    7.675e-04    3.498e-04    3.082e-02  
  9.9000e-02    7.921e-05    7.679e-04    3.794e-04    3.028e-02  
    0.10000     7.998e-05    7.683e-04    4.084e-04    2.959e-02  
y
x

        volt    param      
                    gx4    
   -0.10000    -8.583e-02  
 -9.9000e-02    -28.7258   
 -9.8000e-02   -4.662e+03  
 -9.7000e-02   -4.575e+05  
 -9.6000e-02   -9.866e+07  
 -9.5000e-02    2.992e+08  
 -9.4000e-02   -3.007e+08  
 -9.3000e-02    1.005e+08  
 -9.2000e-02      0.5826   
 -9.1000e-02      0.5684   
 -9.0000e-02      0.6821   
 -8.9000e-02      0.6537   
 -8.8000e-02      0.5116   
 -8.7000e-02      0.7390   
 -8.6000e-02      0.6537   
 -8.5000e-02      0.5826   
 -8.4000e-02      0.6821   
 -8.3000e-02      0.6537   
 -8.2000e-02      0.5826   
 -8.1000e-02      0.7390   
 -8.0000e-02      0.5969   
 -7.9000e-02      0.6111   
 -7.8000e-02      0.7248   
 -7.7000e-02      0.5116   
 -7.6000e-02      0.6963   
 -7.5000e-02      0.6253   
 -7.4000e-02      0.4690   
 -7.3000e-02      0.7248   
 -7.2000e-02      0.4974   
 -7.1000e-02      0.5258   
 -7.0000e-02      0.5684   
 -6.9000e-02      0.4547   
 -6.8000e-02      0.4547   
 -6.7000e-02      0.4832   
 -6.6000e-02      0.3979   
 -6.5000e-02      0.3695   
 -6.4000e-02      0.2274   
 -6.3000e-02      0.3695   
 -6.2000e-02      0.2700   
 -6.1000e-02      0.1137   
 -6.0000e-02      0.1208   
 -5.9000e-02    8.527e-02  
 -5.8000e-02   -1.421e-02  
 -5.7000e-02   -2.842e-02  
 -5.6000e-02     -0.2132   
 -5.5000e-02     -0.1350   
 -5.4000e-02     -0.3837   
 -5.3000e-02     -0.2913   
 -5.2000e-02     -0.5898   
 -5.1000e-02     -0.4832   
 -5.0000e-02     -0.7034   
 -4.9000e-02     -0.7887   
 -4.8000e-02     -0.8669   
 -4.7000e-02     -0.9948   
 -4.6000e-02     -1.1227   
 -4.5000e-02     -1.2434   
 -4.4000e-02     -1.3358   
 -4.3000e-02     -1.5064   
 -4.2000e-02     -1.5916   
 -4.1000e-02     -1.7479   
 -4.0000e-02     -1.9114   
 -3.9000e-02     -1.9682   
 -3.8000e-02     -2.2098   
 -3.7000e-02     -2.2453   
 -3.6000e-02     -2.4514   
 -3.5000e-02     -2.5580   
 -3.4000e-02     -2.7285   
 -3.3000e-02     -2.8209   
 -3.2000e-02     -2.9630   
 -3.1000e-02     -3.1122   
 -3.0000e-02     -3.2045   
 -2.9000e-02     -3.3751   
 -2.8000e-02     -3.4071   
 -2.7000e-02     -3.5989   
 -2.6000e-02     -3.6273   
 -2.5000e-02     -3.7446   
 -2.4000e-02     -3.8085   
 -2.3000e-02     -3.9009   
 -2.2000e-02     -3.9080   
 -2.1000e-02     -3.9719   
 -2.0000e-02     -4.0217   
 -1.9000e-02     -3.9542   
 -1.8000e-02     -4.0110   
 -1.7000e-02     -3.9257   
 -1.6000e-02     -3.9222   
 -1.5000e-02     -3.7907   
 -1.4000e-02     -3.7232   
 -1.3000e-02     -3.5918   
 -1.2000e-02     -3.4159   
 -1.1000e-02     -3.2365   
 -1.0000e-02     -3.0074   
 -9.0000e-03     -2.7498   
 -8.0000e-03     -2.4336   
 -7.0000e-03     -2.0872   
 -6.0000e-03     -1.6840   
 -5.0000e-03     -1.2026   
 -4.0000e-03     -0.6821   
 -3.0000e-03   -2.931e-02  
 -2.0000e-03      0.6759   
 -1.0000e-03      1.5810   
    0.            2.6028   
  1.0000e-03      3.9337   
  2.0000e-03      5.6541   
  3.0000e-03      8.0858   
  4.0000e-03     12.1704   
  5.0000e-03     19.1921   
  6.0000e-03    7.521e-04  
  7.0000e-03    -19.1932   
  8.0000e-03    -12.1688   
  9.0000e-03     -8.0920   
  1.0000e-02     -5.6442   
  1.1000e-02     -3.9333   
  1.2000e-02     -2.6215   
  1.3000e-02     -1.5552   
  1.4000e-02     -0.6999   
  1.5000e-02    5.063e-02  
  1.6000e-02      0.6706   
  1.7000e-02      1.2008   
  1.8000e-02      1.6911   
  1.9000e-02      2.0783   
  2.0000e-02      2.4496   
  2.1000e-02      2.7232   
  2.2000e-02      3.0358   
  2.3000e-02      3.2134   
  2.4000e-02      3.4444   
  2.5000e-02      3.5598   
  2.6000e-02      3.7375   
  2.7000e-02      3.8014   
  2.8000e-02      3.9009   
  2.9000e-02      3.9435   
  3.0000e-02      3.9861   
  3.1000e-02      3.9968   
  3.2000e-02      3.9897   
  3.3000e-02      3.9790   
  3.4000e-02      3.8973   
  3.5000e-02      3.9186   
  3.6000e-02      3.8014   
  3.7000e-02      3.7303   
  3.8000e-02      3.6771   
  3.9000e-02      3.5350   
  4.0000e-02      3.4355   
  4.1000e-02      3.3893   
  4.2000e-02      3.1974   
  4.3000e-02      3.0624   
  4.4000e-02      3.0553   
  4.5000e-02      2.7285   
  4.6000e-02      2.8137   
  4.7000e-02      2.4940   
  4.8000e-02      2.4585   
  4.9000e-02      2.2879   
  5.0000e-02      2.1529   
  5.1000e-02      2.0250   
  5.2000e-02      1.8545   
  5.3000e-02      1.7977   
  5.4000e-02      1.5561   
  5.5000e-02      1.5206   
  5.6000e-02      1.3713   
  5.7000e-02      1.1511   
  5.8000e-02      1.2363   
  5.9000e-02      0.8882   
  6.0000e-02      0.9521   
  6.1000e-02      0.7248   
  6.2000e-02      0.7532   
  6.3000e-02      0.4690   
  6.4000e-02      0.5400   
  6.5000e-02      0.3837   
  6.6000e-02      0.2842   
  6.7000e-02      0.2274   
  6.8000e-02      0.1918   
  6.9000e-02   -5.684e-02  
  7.0000e-02    7.816e-02  
  7.1000e-02   -1.421e-02  
  7.2000e-02     -0.2345   
  7.3000e-02   -8.527e-02  
  7.4000e-02     -0.2700   
  7.5000e-02     -0.2842   
  7.6000e-02     -0.3553   
  7.7000e-02     -0.2842   
  7.8000e-02     -0.4690   
  7.9000e-02     -0.3979   
  8.0000e-02     -0.5258   
  8.1000e-02     -0.3979   
  8.2000e-02     -0.6111   
  8.3000e-02     -0.4974   
  8.4000e-02     -0.5684   
  8.5000e-02     -0.5684   
  8.6000e-02     -0.6679   
  8.7000e-02     -0.4974   
  8.8000e-02     -0.6821   
[...]
 -8.2000e-02   -1.619e-04    1.826e-03    4.388e-03   -2.032e-03  
 -8.1000e-02   -1.601e-04    1.831e-03    4.384e-03   -3.098e-03  
 -8.0000e-02   -1.583e-04    1.835e-03    4.379e-03   -4.164e-03  
 -7.9000e-02   -1.564e-04    1.839e-03    4.372e-03   -5.230e-03  
 -7.8000e-02   -1.546e-04    1.844e-03    4.365e-03   -6.338e-03  
 -7.7000e-02   -1.527e-04    1.848e-03    4.356e-03   -7.432e-03  
 -7.6000e-02   -1.509e-04    1.852e-03    4.347e-03   -8.640e-03  
 -7.5000e-02   -1.490e-04    1.857e-03    4.336e-03   -9.720e-03  
 -7.4000e-02   -1.471e-04    1.861e-03    4.324e-03   -1.097e-02  
 -7.3000e-02   -1.453e-04    1.865e-03    4.310e-03   -1.209e-02  
 -7.2000e-02   -1.434e-04    1.870e-03    4.296e-03   -1.339e-02  
 -7.1000e-02   -1.415e-04    1.874e-03    4.280e-03   -1.457e-02  
 -7.0000e-02   -1.396e-04    1.878e-03    4.263e-03   -1.583e-02  
 -6.9000e-02   -1.377e-04    1.882e-03    4.244e-03   -1.715e-02  
 -6.8000e-02   -1.359e-04    1.887e-03    4.225e-03   -1.833e-02  
 -6.7000e-02   -1.340e-04    1.891e-03    4.204e-03   -1.971e-02  
 -6.6000e-02   -1.321e-04    1.895e-03    4.181e-03   -2.105e-02  
 -6.5000e-02   -1.302e-04    1.899e-03    4.158e-03   -2.228e-02  
 -6.4000e-02   -1.283e-04    1.903e-03    4.133e-03   -2.372e-02  
 -6.3000e-02   -1.263e-04    1.907e-03    4.106e-03   -2.500e-02  
 -6.2000e-02   -1.244e-04    1.911e-03    4.078e-03   -2.645e-02  
 -6.1000e-02   -1.225e-04    1.915e-03    4.049e-03   -2.776e-02  
 -6.0000e-02   -1.206e-04    1.919e-03    4.019e-03   -2.915e-02  
 -5.9000e-02   -1.187e-04    1.923e-03    3.987e-03   -3.060e-02  
 -5.8000e-02   -1.167e-04    1.927e-03    3.953e-03   -3.197e-02  
 -5.7000e-02   -1.148e-04    1.931e-03    3.918e-03   -3.339e-02  
 -5.6000e-02   -1.129e-04    1.935e-03    3.882e-03   -3.482e-02  
 -5.5000e-02   -1.109e-04    1.939e-03    3.844e-03   -3.624e-02  
 -5.4000e-02   -1.090e-04    1.942e-03    3.805e-03   -3.768e-02  
 -5.3000e-02   -1.070e-04    1.946e-03    3.765e-03   -3.912e-02  
 -5.2000e-02   -1.051e-04    1.950e-03    3.723e-03   -4.051e-02  
 -5.1000e-02   -1.031e-04    1.954e-03    3.679e-03   -4.204e-02  
 -5.0000e-02   -1.011e-04    1.957e-03    3.635e-03   -4.336e-02  
 -4.9000e-02   -9.918e-05    1.961e-03    3.588e-03   -4.491e-02  
 -4.8000e-02   -9.721e-05    1.964e-03    3.541e-03   -4.625e-02  
 -4.7000e-02   -9.524e-05    1.968e-03    3.491e-03   -4.773e-02  
 -4.6000e-02   -9.326e-05    1.971e-03    3.441e-03   -4.915e-02  
 -4.5000e-02   -9.129e-05    1.974e-03    3.389e-03   -5.054e-02  
 -4.4000e-02   -8.931e-05    1.978e-03    3.336e-03   -5.193e-02  
 -4.3000e-02   -8.732e-05    1.981e-03    3.281e-03   -5.342e-02  
 -4.2000e-02   -8.533e-05    1.984e-03    3.225e-03   -5.468e-02  
 -4.1000e-02   -8.334e-05    1.987e-03    3.167e-03   -5.614e-02  
 -4.0000e-02   -8.135e-05    1.990e-03    3.108e-03   -5.747e-02  
 -3.9000e-02   -7.935e-05    1.993e-03    3.048e-03   -5.878e-02  
 -3.8000e-02   -7.736e-05    1.996e-03    2.987e-03   -6.016e-02  
 -3.7000e-02   -7.535e-05    1.999e-03    2.924e-03   -6.140e-02  
 -3.6000e-02   -7.335e-05    2.002e-03    2.860e-03   -6.271e-02  
 -3.5000e-02   -7.134e-05    2.004e-03    2.795e-03   -6.393e-02  
 -3.4000e-02   -6.933e-05    2.007e-03    2.729e-03   -6.523e-02  
 -3.3000e-02   -6.732e-05    2.010e-03    2.661e-03   -6.632e-02  
 -3.2000e-02   -6.531e-05    2.012e-03    2.592e-03   -6.759e-02  
 -3.1000e-02   -6.329e-05    2.015e-03    2.523e-03   -6.865e-02  
 -3.0000e-02   -6.127e-05    2.017e-03    2.452e-03   -6.978e-02  
 -2.9000e-02   -5.925e-05    2.019e-03    2.380e-03   -7.086e-02  
 -2.8000e-02   -5.722e-05    2.022e-03    2.307e-03   -7.185e-02  
 -2.7000e-02   -5.520e-05    2.024e-03    2.233e-03   -7.285e-02  
 -2.6000e-02   -5.317e-05    2.026e-03    2.159e-03   -7.378e-02  
 -2.5000e-02   -5.114e-05    2.028e-03    2.083e-03   -7.466e-02  
 -2.4000e-02   -4.911e-05    2.030e-03    2.007e-03   -7.552e-02  
 -2.3000e-02   -4.708e-05    2.032e-03    1.930e-03   -7.628e-02  
 -2.2000e-02   -4.504e-05    2.033e-03    1.852e-03   -7.704e-02  
 -2.1000e-02   -4.300e-05    2.035e-03    1.774e-03   -7.768e-02  
 -2.0000e-02   -4.097e-05    2.037e-03    1.695e-03   -7.830e-02  
 -1.9000e-02   -3.893e-05    2.038e-03    1.616e-03   -7.885e-02  
 -1.8000e-02   -3.688e-05    2.040e-03    1.536e-03   -7.928e-02  
 -1.7000e-02   -3.484e-05    2.041e-03    1.456e-03   -7.972e-02  
 -1.6000e-02   -3.280e-05    2.042e-03    1.376e-03   -8.002e-02  
 -1.5000e-02   -3.075e-05    2.044e-03    1.295e-03   -8.024e-02  
 -1.4000e-02   -2.871e-05    2.045e-03    1.215e-03   -8.040e-02  
 -1.3000e-02   -2.666e-05    2.046e-03    1.135e-03   -8.042e-02  
 -1.2000e-02   -2.461e-05    2.047e-03    1.054e-03   -8.040e-02  
 -1.1000e-02   -2.257e-05    2.048e-03    9.744e-04   -8.021e-02  
 -1.0000e-02   -2.052e-05    2.048e-03    8.949e-04   -7.994e-02  
 -9.0000e-03   -1.847e-05    2.049e-03    8.159e-04   -7.953e-02  
 -8.0000e-03   -1.642e-05    2.050e-03    7.376e-04   -7.898e-02  
 -7.0000e-03   -1.436e-05    2.050e-03    6.602e-04   -7.829e-02  
 -6.0000e-03   -1.231e-05    2.051e-03    5.838e-04   -7.742e-02  
 -5.0000e-03   -1.026e-05    2.051e-03    5.087e-04   -7.636e-02  
 -4.0000e-03   -8.210e-06    2.052e-03    4.351e-04   -7.511e-02  
 -3.0000e-03   -6.158e-06    2.052e-03    3.633e-04   -7.360e-02  
 -2.0000e-03   -4.105e-06    2.052e-03    2.936e-04   -7.183e-02  
 -1.0000e-03   -2.053e-06    2.052e-03    2.264e-04   -6.970e-02  
    0.          5.427e-14    2.053e-03    1.624e-04   -6.716e-02  
  1.0000e-03    2.053e-06    2.053e-03    1.022e-04   -6.406e-02  
  2.0000e-03    4.105e-06    2.053e-03    4.728e-05   -6.018e-02  
  3.0000e-03    6.158e-06    2.053e-03    4.802e-11   -5.491e-02  
  4.0000e-03    8.210e-06    2.052e-03   -4.728e-05   -4.728e-02  
  5.0000e-03    1.026e-05    2.052e-03   -1.022e-04   -4.728e-02  
  6.0000e-03    1.231e-05    2.052e-03   -1.624e-04   -5.491e-02  
  7.0000e-03    1.436e-05    2.052e-03   -2.264e-04   -6.017e-02  
  8.0000e-03    1.642e-05    2.051e-03   -2.936e-04   -6.406e-02  
  9.0000e-03    1.847e-05    2.051e-03   -3.633e-04   -6.717e-02  
  1.0000e-02    2.052e-05    2.050e-03   -4.351e-04   -6.969e-02  
  1.1000e-02    2.257e-05    2.050e-03   -5.087e-04   -7.183e-02  
  1.2000e-02    2.461e-05    2.049e-03   -5.838e-04   -7.360e-02  
  1.3000e-02    2.666e-05    2.048e-03   -6.602e-04   -7.511e-02  
  1.4000e-02    2.871e-05    2.048e-03   -7.376e-04   -7.637e-02  
  1.5000e-02    3.075e-05    2.047e-03   -8.159e-04   -7.742e-02  
  1.6000e-02    3.280e-05    2.046e-03   -8.949e-04   -7.828e-02  
  1.7000e-02    3.484e-05    2.045e-03   -9.744e-04   -7.898e-02  
  1.8000e-02    3.688e-05    2.044e-03   -1.054e-03   -7.952e-02  
  1.9000e-02    3.893e-05    2.042e-03   -1.135e-03   -7.994e-02  
  2.0000e-02    4.097e-05    2.041e-03   -1.215e-03   -8.022e-02  
  2.1000e-02    4.300e-05    2.040e-03   -1.295e-03   -8.037e-02  
  2.2000e-02    4.504e-05    2.038e-03   -1.376e-03   -8.044e-02  
  2.3000e-02    4.708e-05    2.037e-03   -1.456e-03   -8.040e-02  
  2.4000e-02    4.911e-05    2.035e-03   -1.536e-03   -8.025e-02  
  2.5000e-02    5.114e-05    2.033e-03   -1.616e-03   -8.001e-02  
  2.6000e-02    5.317e-05    2.032e-03   -1.695e-03   -7.971e-02  
  2.7000e-02    5.520e-05    2.030e-03   -1.774e-03   -7.931e-02  
  2.8000e-02    5.722e-05    2.028e-03   -1.852e-03   -7.883e-02  
  2.9000e-02    5.925e-05    2.026e-03   -1.930e-03   -7.831e-02  
  3.0000e-02    6.127e-05    2.024e-03   -2.007e-03   -7.768e-02  
  3.1000e-02    6.329e-05    2.022e-03   -2.083e-03   -7.703e-02  
  3.2000e-02    6.531e-05    2.019e-03   -2.159e-03   -7.630e-02  
  3.3000e-02    6.732e-05    2.017e-03   -2.233e-03   -7.550e-02  
  3.4000e-02    6.933e-05    2.015e-03   -2.307e-03   -7.467e-02  
  3.5000e-02    7.134e-05    2.012e-03   -2.380e-03   -7.379e-02  
  3.6000e-02    7.335e-05    2.010e-03   -2.452e-03   -7.283e-02  
  3.7000e-02    7.535e-05    2.007e-03   -2.523e-03   -7.186e-02  
  3.8000e-02    7.736e-05    2.004e-03   -2.592e-03   -7.087e-02  
  3.9000e-02    7.935e-05    2.002e-03   -2.661e-03   -6.973e-02  
  4.0000e-02    8.135e-05    1.999e-03   -2.729e-03   -6.871e-02  
  4.1000e-02    8.334e-05    1.996e-03   -2.795e-03   -6.753e-02  
  4.2000e-02    8.533e-05    1.993e-03   -2.860e-03   -6.640e-02  
  4.3000e-02    8.732e-05    1.990e-03   -2.924e-03   -6.515e-02  
  4.4000e-02    8.931e-05    1.987e-03   -2.987e-03   -6.398e-02  
  4.5000e-02    9.129e-05    1.984e-03   -3.048e-03   -6.268e-02  
  4.6000e-02    9.326e-05    1.981e-03   -3.108e-03   -6.142e-02  
  4.7000e-02    9.524e-05    1.978e-03   -3.167e-03   -6.015e-02  
  4.8000e-02    9.721e-05    1.974e-03   -3.225e-03   -5.878e-02  
  4.9000e-02    9.918e-05    1.971e-03   -3.281e-03   -5.748e-02  
  5.0000e-02    1.011e-04    1.968e-03   -3.336e-03   -5.612e-02  
  5.1000e-02    1.031e-04    1.964e-03   -3.389e-03   -5.472e-02  
  5.2000e-02    1.051e-04    1.961e-03   -3.441e-03   -5.337e-02  
  5.3000e-02    1.070e-04    1.957e-03   -3.491e-03   -5.198e-02  
  5.4000e-02    1.090e-04    1.954e-03   -3.541e-03   -5.051e-02  
  5.5000e-02    1.109e-04    1.950e-03   -3.588e-03   -4.918e-02  
  5.6000e-02    1.129e-04    1.946e-03   -3.635e-03   -4.771e-02  
  5.7000e-02    1.148e-04    1.942e-03   -3.679e-03   -4.628e-02  
  5.8000e-02    1.167e-04    1.939e-03   -3.723e-03   -4.487e-02  
  5.9000e-02    1.187e-04    1.935e-03   -3.765e-03   -4.340e-02  
  6.0000e-02    1.206e-04    1.931e-03   -3.805e-03   -4.200e-02  
  6.1000e-02    1.225e-04    1.927e-03   -3.844e-03   -4.054e-02  
  6.2000e-02    1.244e-04    1.923e-03   -3.882e-03   -3.910e-02  
  6.3000e-02    1.263e-04    1.919e-03   -3.918e-03   -3.767e-02  
  6.4000e-02    1.283e-04    1.915e-03   -3.953e-03   -3.624e-02  
  6.5000e-02    1.302e-04    1.911e-03   -3.987e-03   -3.481e-02  
  6.6000e-02    1.321e-04    1.907e-03   -4.019e-03   -3.340e-02  
  6.7000e-02    1.340e-04    1.903e-03   -4.049e-03   -3.198e-02  
  6.8000e-02    1.359e-04    1.899e-03   -4.078e-03   -3.058e-02  
  6.9000e-02    1.377e-04    1.895e-03   -4.106e-03   -2.911e-02  
  7.0000e-02    1.396e-04    1.891e-03   -4.132e-03   -2.786e-02  
  7.1000e-02    1.415e-04    1.887e-03   -4.158e-03   -2.633e-02  
  7.2000e-02    1.434e-04    1.882e-03   -4.181e-03   -2.510e-02  
  7.3000e-02    1.453e-04    1.878e-03   -4.204e-03   -2.363e-02  
  7.4000e-02    1.471e-04    1.874e-03   -4.225e-03   -2.238e-02  
  7.5000e-02    1.490e-04    1.870e-03   -4.244e-03   -2.098e-02  
  7.6000e-02    1.509e-04    1.865e-03   -4.263e-03   -1.968e-02  
  7.7000e-02    1.527e-04    1.861e-03   -4.280e-03   -1.840e-02  
  7.8000e-02    1.546e-04    1.857e-03   -4.296e-03   -1.714e-02  
  7.9000e-02    1.564e-04    1.852e-03   -4.310e-03   -1.579e-02  
  8.0000e-02    1.583e-04    1.848e-03   -4.324e-03   -1.461e-02  
  8.1000e-02    1.601e-04    1.844e-03   -4.336e-03   -1.336e-02  
  8.2000e-02    1.619e-04    1.839e-03   -4.347e-03   -1.214e-02  
  8.3000e-02    1.638e-04    1.835e-03   -4.356e-03   -1.091e-02  
  8.4000e-02    1.656e-04    1.831e-03   -4.365e-03   -9.777e-03  
  8.5000e-02    1.674e-04    1.826e-03   -4.372e-03   -8.598e-03  
  8.6000e-02    1.692e-04    1.822e-03   -4.379e-03   -7.446e-03  
  8.7000e-02    1.710e-04    1.818e-03   -4.384e-03   -6.338e-03  
  8.8000e-02    1.729e-04    1.813e-03   -4.388e-03   -5.244e-03  
  8.9000e-02    1.747e-04    1.809e-03   -4.391e-03   -4.107e-03  
  9.0000e-02    1.765e-04    1.804e-03   -4.393e-03   -3.169e-03  
  9.1000e-02    1.783e-04    1.800e-03   -4.394e-03   -2.004e-03  
  9.2000e-02    1.800e-04    1.796e-03   -4.394e-03   -1.052e-03  
  9.3000e-02    1.818e-04    1.791e-03   -4.393e-03   -5.684e-05  
  9.4000e-02    1.836e-04    1.787e-03   -4.392e-03    9.663e-04  
  9.5000e-02    1.854e-04    1.782e-03   -4.389e-03    1.876e-03  
  9.6000e-02    1.872e-04    1.778e-03   -4.385e-03    2.785e-03  
  9.7000e-02    1.889e-04    1.774e-03   -4.380e-03    3.766e-03  
  9.8000e-02    1.907e-04    1.769e-03   -4.375e-03    4.547e-03  
  9.9000e-02    1.925e-04    1.765e-03   -4.369e-03    5.571e-03  
    0.10000     1.942e-04    1.761e-03   -4.361e-03    6.253e-03  
y
x

        volt    param      
                    gx4    
   -0.10000      -0.2908   
 -9.9000e-02     -6.1063   
 -9.8000e-02   -1.081e+04  
 -9.7000e-02   -2.718e+06  
 -9.6000e-02   -3.306e+08  
 -9.5000e-02    1.008e+09  
 -9.4000e-02   -1.014e+09  
 -9.3000e-02    3.393e+08  
 -9.2000e-02     -0.8953   
 -9.1000e-02     -0.8242   
 -9.0000e-02     -0.7390   
 -8.9000e-02     -0.8384   
 -8.8000e-02     -0.9379   
 -8.7000e-02     -0.8384   
 -8.6000e-02     -0.9379   
 -8.5000e-02     -0.9237   
 -8.4000e-02     -0.8953   
 -8.3000e-02     -1.0658   
 -8.2000e-02     -0.9521   
 -8.1000e-02     -0.9948   
 -8.0000e-02     -1.0658   
 -7.9000e-02     -1.0658   
 -7.8000e-02     -1.0658   
 -7.7000e-02     -1.1084   
 -7.6000e-02     -1.0942   
 -7.5000e-02     -1.2079   
 -7.4000e-02     -1.0800   
 -7.3000e-02     -1.2506   
 -7.2000e-02     -1.1227   
 -7.1000e-02     -1.2932   
 -7.0000e-02     -1.1795   
 -6.9000e-02     -1.2648   
 -6.8000e-02     -1.3216   
 -6.7000e-02     -1.1795   
 -6.6000e-02     -1.3785   
 -6.5000e-02     -1.3358   
 -6.4000e-02     -1.2363   
 -6.3000e-02     -1.4353   
 -6.2000e-02     -1.2790   
 -6.1000e-02     -1.4495   
 -6.0000e-02     -1.3145   
 -5.9000e-02     -1.3927   
 -5.8000e-02     -1.4424   
 -5.7000e-02     -1.3785   
 -5.6000e-02     -1.4140   
 -5.5000e-02     -1.4282   
 -5.4000e-02     -1.4211   
 -5.3000e-02     -1.4424   
 -5.2000e-02     -1.4353   
 -5.1000e-02     -1.3927   
 -5.0000e-02     -1.5277   
 -4.9000e-02     -1.3216   
 -4.8000e-02     -1.5490   
 -4.7000e-02     -1.3429   
 -4.6000e-02     -1.4850   
 -4.5000e-02     -1.4140   
 -4.4000e-02     -1.3927   
 -4.3000e-02     -1.3856   
 -4.2000e-02     -1.4921   
 -4.1000e-02     -1.2648   
 -4.0000e-02     -1.4566   
 -3.9000e-02     -1.3287   
 -3.8000e-02     -1.3074   
 -3.7000e-02     -1.3856   
 -3.6000e-02     -1.2363   
 -3.5000e-02     -1.3145   
 -3.4000e-02     -1.2150   
 -3.3000e-02     -1.3003   
 -3.2000e-02     -1.0942   
 -3.1000e-02     -1.2719   
 -3.0000e-02     -1.0587   
 -2.9000e-02     -1.1227   
 -2.8000e-02     -1.0871   
 -2.7000e-02     -0.9877   
 -2.6000e-02     -1.0019   
 -2.5000e-02     -0.9308   
 -2.4000e-02     -0.8775   
 -2.3000e-02     -0.8598   
 -2.2000e-02     -0.7567   
 -2.1000e-02     -0.7638   
 -2.0000e-02     -0.6395   
 -1.9000e-02     -0.6182   
 -1.8000e-02     -0.5542   
 -1.7000e-02     -0.4263   
 -1.6000e-02     -0.4405   
 -1.5000e-02     -0.2984   
 -1.4000e-02     -0.2238   
 -1.3000e-02     -0.1599   
 -1.2000e-02   -1.421e-02  
 -1.1000e-02    1.776e-02  
 -1.0000e-02      0.1830   
 -9.0000e-03      0.2789   
 -8.0000e-03      0.4103   
 -7.0000e-03      0.5453   
 -6.0000e-03      0.6946   
 -5.0000e-03      0.8651   
 -4.0000e-03      1.0605   
 -3.0000e-03      1.2479   
 -2.0000e-03      1.5126   
 -1.0000e-03      1.7737   
    0.            2.1272   
  1.0000e-03      2.5340   
  2.0000e-03      3.1044   
  3.0000e-03      3.8848   
  4.0000e-03      5.2652   
  5.0000e-03      7.6350   
  6.0000e-03    7.799e-05  
  7.0000e-03     -7.6364   
  8.0000e-03     -5.2606   
  9.0000e-03     -3.8917   
  1.0000e-02     -3.1013   
  1.1000e-02     -2.5291   
  1.2000e-02     -2.1334   
  1.3000e-02     -1.7764   
  1.4000e-02     -1.5010   
  1.5000e-02     -1.2621   
  1.6000e-02     -1.0498   
  1.7000e-02     -0.8669   
  1.8000e-02     -0.6981   
  1.9000e-02     -0.5418   
  2.0000e-02     -0.4139   
  2.1000e-02     -0.2860   
  2.2000e-02     -0.1474   
  2.3000e-02   -6.928e-02  
  2.4000e-02    4.263e-02  
  2.5000e-02      0.1528   
  2.6000e-02      0.2380   
  2.7000e-02      0.2984   
  2.8000e-02      0.3979   
  2.9000e-02      0.4832   
  3.0000e-02      0.5222   
  3.1000e-02      0.6217   
  3.2000e-02      0.6573   
  3.3000e-02      0.7283   
  3.4000e-02      0.7958   
  3.5000e-02      0.8349   
  3.6000e-02      0.8740   
  3.7000e-02      0.9628   
  3.8000e-02      0.9663   
  3.9000e-02      0.9912   
  4.0000e-02      1.1404   
  4.1000e-02      1.0232   
  4.2000e-02      1.1795   
  4.3000e-02      1.1298   
  4.4000e-02      1.2506   
  4.5000e-02      1.1653   
  4.6000e-02      1.3074   
  4.7000e-02      1.2577   
  4.8000e-02      1.2648   
  4.9000e-02      1.3785   
  5.0000e-02      1.3003   
  5.1000e-02      1.3571   
  5.2000e-02      1.3998   
  5.3000e-02      1.3500   
  5.4000e-02      1.3927   
  5.5000e-02      1.4708   
  5.6000e-02      1.3287   
  5.7000e-02      1.4708   
  5.8000e-02      1.4282   
  5.9000e-02      1.4069   
  6.0000e-02      1.4708   
  6.1000e-02      1.3998   
  6.2000e-02      1.4637   
  6.3000e-02      1.4353   
  6.4000e-02      1.4282   
  6.5000e-02      1.4282   
  6.6000e-02      1.4353   
  6.7000e-02      1.4069   
  6.8000e-02      1.4211   
  6.9000e-02      1.3998   
  7.0000e-02      1.4708   
  7.1000e-02      1.2506   
  7.2000e-02      1.5277   
  7.3000e-02      1.2363   
  7.4000e-02      1.4637   
  7.5000e-02      1.2506   
  7.6000e-02      1.4069   
  7.7000e-02      1.2932   
  7.8000e-02      1.2790   
  7.9000e-02      1.2648   
  8.0000e-02      1.3500   
  8.1000e-02      1.1795   
  8.2000e-02      1.2506   
  8.3000e-02      1.2221   
  8.4000e-02      1.2221   
  8.5000e-02      1.1369   
  8.6000e-02      1.1795   
  8.7000e-02      1.1511   
  8.8000e-02      1.1084   
  8.9000e-02      1.0942   
  9.0000e-02      1.1369   
  9.1000e-02      0.9379   
  9.2000e-02      1.1653   
  9.3000e-02      0.9521   
  9.4000e-02      0.9948   
  9.5000e-02      1.0232   
  9.6000e-02      0.9095   
  9.7000e-02      0.9095   
  9.8000e-02      0.9805   
  9.9000e-02      0.7816   
    0.10000       1.0232   
y
-----------------------------------------------

          ***** job concluded
1****** HSPICE -- G-2012.06 32-BIT (May 27 2012) RHEL32 ******                  
 ******  
 *sample netlist for bsim-mg

  ******  job statistics summary tnom=  25.000 temp=  25.000 *****
  
  
 ******  Machine Information  ******
 CPU:
 model name	: Intel(R) Xeon(R) CPU E5-2643 0 @ 3.30GHz
 cpu MHz	: 3299.813
  
 OS:
 Linux version 2.6.32-573.7.1.el6.x86_64 (mockbuild@x86-031.build.eng.bos.redhat.com) (gcc version 4.4.7 20120313 (Red Hat 4.4.7-16) (GCC) ) #1 SMP Thu Sep 10 13:42:16 EDT 2015


  ******  HSPICE Threads Information  ******

  Command Line Threads Count :     1
  Available CPU Count        :     8
  Actual Threads Count       :     1


  ******  Circuit Statistics  ******
  # nodes       =      10 # elements   =       5
  # resistors   =       0 # capacitors =       0 # inductors   =       0
  # mutual_inds =       0 # vccs       =       0 # vcvs        =       1
  # cccs        =       0 # ccvs       =       0 # volt_srcs   =       3
  # curr_srcs   =       0 # diodes     =       0 # bjts        =       0
  # jfets       =       0 # mosfets    =       0 # U elements  =       0
  # T elements  =       0 # W elements =       0 # B elements  =       0
  # S elements  =       0 # P elements =       0 # va device   =       1
  # vector_srcs =       0 # N elements =       0


  ******  Runtime Statistics (seconds)  ******

  analysis           time    # points   tot. iter  conv.iter
  op point           0.00           1           0
  dc sweep           0.18        1206        2424
  readin             3.07
  errchk             0.06
  setup              0.00
  output             0.00


           peak memory used        119.22 megabytes
           total cpu time            3.31 seconds
           total elapsed time        8.80 seconds
           job started at     08:28:15 12/31/2015
           job ended   at     08:28:24 12/31/2015


 lic: Release hspice token(s) 
 lic: total license checkout elapse time:        0.21(s)
