 ****** HSPICE -- G-2012.06 32-BIT (May 27 2012) RHEL32 ******                  
  Copyright (C) 2012 Synopsys, Inc. All Rights Reserved.                        
  Unpublished-rights reserved under US copyright laws.
  This program is protected by law and is subject to the
  terms and conditions of the license agreement from Synopsys.
  Use of this program is your acceptance to be bound by the
  license agreement. HSPICE is the trademark of Synopsys, Inc.
  Input File: gummel_n.sp                                                       
  Command line options: -hdlpath ../code -i gummel_n.sp -o gummel_n
 lic:  
 lic: FLEXlm: v10.8 
 lic: USER:   sourabh              HOSTNAME: bwrcr720-2.eecs.berkeley.edu 
 lic: HOSTID:                      PID:      15005 
 lic: Using FLEXlm license file: 
 lic: 1701@sunv40z-1.eecs.berkeley.edu 
 lic: Checkout 1 hspice 
 lic: License/Maintenance for hspice will expire on 18-nov-2016/2015.06 
 lic: 1(in_use)/50(total) FLOATING license(s) on SERVER sunv40z-1.eecs.berkeley.
 lic:   
 Init: read install configuration file: /tools/synopsys/hspice/G-2012.06/hspice/meta.cfg
 **info** *pvaI* Module (bsimcmg): 5 unexpanded port, 0 init, 2015 behav, 64 contrib, 49/3015 expr(s)

 **info** *pvaI* Resizing DB size for v count = 1

 **info** *pvaI* Resizing DB size for v count = 2

 **info** *pvaI*        Has DIS (PC SB), 5 afCount

 **info** *pvaI*        0 const-G and 0 const-C, Has switch branch.

 **info** *pvaI* Module (bsimcmg): generated 4 flow node(s) during compilation.

 **info** *pvaI* #### Total 762 line-size(s), 49 expr(s), 64 contr(s), 0 init(s), 2015 behav(s), 5 port(s)

 Loading pVA library gummel_n.pvadir/pvaRTL_linux.so...
1****** HSPICE -- G-2012.06 32-BIT (May 27 2012) RHEL32 ******                  
 ******  
 *sample netlist for bsim-mg

  ******  circuit name directory
 circuit number to circuit name directory
   number circuitname                     definition         multiplier
        0 main circuit
        1 x1.                             bsimcmg(va)        1.00 
 **info** *pvaI* Creating Verilog-A module 'bsimcmg' for X1

  
      
 *****************************************************************
 ******  option summary
 ******
 runlvl  = 3         bypass  = 2         
  Opening plot unit= 15
 file=gummel_n.pa0                                                             

 ******  
 *sample netlist for bsim-mg

  ******  dc transfer curves tnom=  25.000 temp=  25.000 *****

   *** source        0:vgate =    0.            ***

x

        volt    param        param        param        param      
                    ids          gx           gx2          gx3    
   -0.10000    -5.385e-08      0.           0.           0.       
 -9.9000e-02   -5.192e-08   -5.385e-05      0.           0.       
 -9.8000e-02   -5.006e-08    1.930e-06   -5.385e-02      0.       
 -9.7000e-02   -4.826e-08    1.863e-06    5.578e-02    -53.8512   
 -9.6000e-02   -4.653e-08    1.797e-06   -6.754e-05    109.6326   
 -9.5000e-02   -4.485e-08    1.734e-06   -6.520e-05    -55.8489   
 -9.4000e-02   -4.324e-08    1.674e-06   -6.304e-05    2.345e-03  
 -9.3000e-02   -4.168e-08    1.615e-06   -6.081e-05    2.160e-03  
 -9.2000e-02   -4.018e-08    1.558e-06   -5.880e-05    2.231e-03  
 -9.1000e-02   -3.873e-08    1.503e-06   -5.673e-05    2.004e-03  
 -9.0000e-02   -3.733e-08    1.450e-06   -5.483e-05    2.075e-03  
 -8.9000e-02   -3.598e-08    1.399e-06   -5.294e-05    1.904e-03  
 -8.8000e-02   -3.468e-08    1.350e-06   -5.107e-05    1.890e-03  
 -8.7000e-02   -3.342e-08    1.302e-06   -4.938e-05    1.862e-03  
 -8.6000e-02   -3.221e-08    1.256e-06   -4.765e-05    1.691e-03  
 -8.5000e-02   -3.104e-08    1.212e-06   -4.597e-05    1.734e-03  
 -8.4000e-02   -2.991e-08    1.169e-06   -4.442e-05    1.677e-03  
 -8.3000e-02   -2.882e-08    1.127e-06   -4.285e-05    1.549e-03  
 -8.2000e-02   -2.778e-08    1.088e-06   -4.141e-05    1.577e-03  
 -8.1000e-02   -2.676e-08    1.049e-06   -3.995e-05    1.435e-03  
 -8.0000e-02   -2.579e-08    1.012e-06   -3.855e-05    1.464e-03  
 -7.9000e-02   -2.485e-08    9.759e-07   -3.722e-05    1.393e-03  
 -7.8000e-02   -2.394e-08    9.412e-07   -3.590e-05    1.336e-03  
 -7.7000e-02   -2.306e-08    9.077e-07   -3.470e-05    1.322e-03  
 -7.6000e-02   -2.222e-08    8.754e-07   -3.344e-05    1.194e-03  
 -7.5000e-02   -2.140e-08    8.443e-07   -3.227e-05    1.265e-03  
 -7.4000e-02   -2.062e-08    8.142e-07   -3.115e-05    1.165e-03  
 -7.3000e-02   -1.986e-08    7.852e-07   -3.007e-05    1.123e-03  
 -7.2000e-02   -1.913e-08    7.573e-07   -2.900e-05    1.080e-03  
 -7.1000e-02   -1.843e-08    7.303e-07   -2.797e-05    1.066e-03  
 -7.0000e-02   -1.775e-08    7.042e-07   -2.700e-05    1.037e-03  
 -6.9000e-02   -1.709e-08    6.791e-07   -2.602e-05    9.663e-04  
 -6.8000e-02   -1.646e-08    6.549e-07   -2.512e-05    9.805e-04  
 -6.7000e-02   -1.585e-08    6.315e-07   -2.422e-05    8.953e-04  
 -6.6000e-02   -1.527e-08    6.090e-07   -2.339e-05    9.095e-04  
 -6.5000e-02   -1.470e-08    5.873e-07   -2.252e-05    8.242e-04  
 -6.4000e-02   -1.415e-08    5.663e-07   -2.171e-05    8.669e-04  
 -6.3000e-02   -1.363e-08    5.461e-07   -2.096e-05    8.100e-04  
 -6.2000e-02   -1.312e-08    5.266e-07   -2.021e-05    7.532e-04  
 -6.1000e-02   -1.263e-08    5.078e-07   -1.950e-05    7.532e-04  
 -6.0000e-02   -1.216e-08    4.897e-07   -1.878e-05    7.034e-04  
 -5.9000e-02   -1.170e-08    4.723e-07   -1.809e-05    7.248e-04  
 -5.8000e-02   -1.126e-08    4.555e-07   -1.744e-05    6.892e-04  
 -5.7000e-02   -1.084e-08    4.392e-07   -1.683e-05    6.466e-04  
 -5.6000e-02   -1.043e-08    4.236e-07   -1.621e-05    6.182e-04  
 -5.5000e-02   -1.004e-08    4.086e-07   -1.562e-05    6.182e-04  
 -5.4000e-02   -9.656e-09    3.941e-07   -1.505e-05    5.898e-04  
 -5.3000e-02   -9.290e-09    3.801e-07   -1.450e-05    5.684e-04  
 -5.2000e-02   -8.936e-09    3.667e-07   -1.395e-05    5.471e-04  
 -5.1000e-02   -8.595e-09    3.537e-07   -1.346e-05    5.542e-04  
 -5.0000e-02   -8.265e-09    3.412e-07   -1.295e-05    4.903e-04  
 -4.9000e-02   -7.948e-09    3.293e-07   -1.248e-05    5.116e-04  
 -4.8000e-02   -7.641e-09    3.177e-07   -1.198e-05    4.690e-04  
 -4.7000e-02   -7.345e-09    3.066e-07   -1.157e-05    4.974e-04  
 -4.6000e-02   -7.060e-09    2.959e-07   -1.112e-05    4.121e-04  
 -4.5000e-02   -6.784e-09    2.856e-07   -1.069e-05    4.476e-04  
 -4.4000e-02   -6.518e-09    2.757e-07   -1.030e-05    4.263e-04  
 -4.3000e-02   -6.261e-09    2.662e-07   -9.877e-06    3.979e-04  
 -4.2000e-02   -6.013e-09    2.570e-07   -9.543e-06    4.192e-04  
 -4.1000e-02   -5.773e-09    2.482e-07   -9.138e-06    3.340e-04  
 -4.0000e-02   -5.541e-09    2.398e-07   -8.789e-06    4.050e-04  
 -3.9000e-02   -5.317e-09    2.317e-07   -8.463e-06    3.482e-04  
 -3.8000e-02   -5.101e-09    2.239e-07   -8.107e-06    3.268e-04  
 -3.7000e-02   -4.892e-09    2.164e-07   -7.816e-06    3.553e-04  
 -3.6000e-02   -4.689e-09    2.092e-07   -7.475e-06    2.913e-04  
 -3.5000e-02   -4.494e-09    2.023e-07   -7.184e-06    3.411e-04  
 -3.4000e-02   -4.304e-09    1.957e-07   -6.892e-06    2.913e-04  
 -3.3000e-02   -4.121e-09    1.894e-07   -6.615e-06    2.913e-04  
 -3.2000e-02   -3.943e-09    1.833e-07   -6.324e-06    2.771e-04  
 -3.1000e-02   -3.771e-09    1.775e-07   -6.061e-06    2.913e-04  
 -3.0000e-02   -3.605e-09    1.720e-07   -5.784e-06    2.629e-04  
 -2.9000e-02   -3.443e-09    1.667e-07   -5.546e-06    2.771e-04  
 -2.8000e-02   -3.286e-09    1.617e-07   -5.258e-06    2.380e-04  
 -2.7000e-02   -3.134e-09    1.569e-07   -5.016e-06    2.878e-04  
 -2.6000e-02   -2.986e-09    1.524e-07   -4.771e-06    2.416e-04  
 -2.5000e-02   -2.841e-09    1.481e-07   -4.515e-06    2.451e-04  
 -2.4000e-02   -2.701e-09    1.441e-07   -4.267e-06    2.558e-04  
 -2.3000e-02   -2.564e-09    1.403e-07   -4.025e-06    2.487e-04  
 -2.2000e-02   -2.431e-09    1.368e-07   -3.794e-06    2.416e-04  
 -2.1000e-02   -2.301e-09    1.334e-07   -3.567e-06    2.309e-04  
 -2.0000e-02   -2.173e-09    1.303e-07   -3.325e-06    2.274e-04  
 -1.9000e-02   -2.049e-09    1.274e-07   -3.137e-06    2.416e-04  
 -1.8000e-02   -1.926e-09    1.247e-07   -2.906e-06    1.883e-04  
 -1.7000e-02   -1.807e-09    1.221e-07   -2.721e-06    2.309e-04  
 -1.6000e-02   -1.689e-09    1.198e-07   -2.551e-06    1.847e-04  
 -1.5000e-02   -1.574e-09    1.176e-07   -2.366e-06    1.705e-04  
 -1.4000e-02   -1.460e-09    1.155e-07   -2.201e-06    1.847e-04  
 -1.3000e-02   -1.348e-09    1.136e-07   -2.055e-06    1.652e-04  
 -1.2000e-02   -1.238e-09    1.118e-07   -1.911e-06    1.457e-04  
 -1.1000e-02   -1.129e-09    1.102e-07   -1.775e-06    1.439e-04  
 -1.0000e-02   -1.022e-09    1.086e-07   -1.650e-06    1.368e-04  
 -9.0000e-03   -9.162e-10    1.072e-07   -1.519e-06    1.243e-04  
 -8.0000e-03   -8.114e-10    1.060e-07   -1.403e-06    1.315e-04  
 -7.0000e-03   -7.076e-10    1.048e-07   -1.277e-06    1.155e-04  
 -6.0000e-03   -6.048e-10    1.038e-07   -1.164e-06    1.261e-04  
 -5.0000e-03   -5.028e-10    1.028e-07   -1.042e-06    1.137e-04  
 -4.0000e-03   -4.014e-10    1.020e-07   -9.193e-07    1.217e-04  
 -3.0000e-03   -3.006e-10    1.014e-07   -7.994e-07    1.226e-04  
 -2.0000e-03   -2.002e-10    1.008e-07   -6.684e-07    1.199e-04  
 -1.0000e-03   -1.000e-10    1.004e-07   -5.418e-07    1.310e-04  
    0.         -7.691e-25    1.001e-07   -4.099e-07    1.266e-04  
  1.0000e-03    1.000e-10    1.000e-07   -2.748e-07    1.319e-04  
  2.0000e-03    2.002e-10    1.000e-07   -1.379e-07    1.351e-04  
  3.0000e-03    3.006e-10    1.001e-07   -2.220e-10    1.369e-04  
  4.0000e-03    4.014e-10    1.004e-07    1.383e-07    1.377e-04  
  5.0000e-03    5.028e-10    1.008e-07    2.746e-07    1.386e-04  
  6.0000e-03    6.048e-10    1.014e-07    4.081e-07    1.362e-04  
  7.0000e-03    7.076e-10    1.020e-07    5.445e-07    1.336e-04  
  8.0000e-03    8.114e-10    1.028e-07    6.701e-07    1.363e-04  
  9.0000e-03    9.162e-10    1.038e-07    7.949e-07    1.257e-04  
  1.0000e-02    1.022e-09    1.048e-07    9.210e-07    1.248e-04  
  1.1000e-02    1.129e-09    1.060e-07    1.044e-06    1.261e-04  
  1.2000e-02    1.238e-09    1.072e-07    1.158e-06    1.226e-04  
  1.3000e-02    1.348e-09    1.086e-07    1.283e-06    1.146e-04  
  1.4000e-02    1.460e-09    1.102e-07    1.403e-06    1.243e-04  
  1.5000e-02    1.574e-09    1.118e-07    1.517e-06    1.208e-04  
  1.6000e-02    1.689e-09    1.136e-07    1.647e-06    1.137e-04  
  1.7000e-02    1.807e-09    1.155e-07    1.780e-06    1.297e-04  
  1.8000e-02    1.926e-09    1.176e-07    1.910e-06    1.332e-04  
  1.9000e-02    2.049e-09    1.198e-07    2.052e-06    1.297e-04  
  2.0000e-02    2.173e-09    1.221e-07    2.212e-06    1.421e-04  
  2.1000e-02    2.301e-09    1.247e-07    2.355e-06    1.599e-04  
  2.2000e-02    2.431e-09    1.274e-07    2.554e-06    1.439e-04  
  2.3000e-02    2.564e-09    1.303e-07    2.718e-06    1.990e-04  
  2.4000e-02    2.701e-09    1.334e-07    2.917e-06    1.634e-04  
  2.5000e-02    2.841e-09    1.368e-07    3.123e-06    1.990e-04  
  2.6000e-02    2.986e-09    1.403e-07    3.336e-06    2.061e-04  
  2.7000e-02    3.134e-09    1.441e-07    3.567e-06    2.132e-04  
  2.8000e-02    3.286e-09    1.481e-07    3.784e-06    2.309e-04  
  2.9000e-02    3.443e-09    1.524e-07    4.029e-06    2.167e-04  
  3.0000e-02    3.605e-09    1.569e-07    4.277e-06    2.451e-04  
  3.1000e-02    3.771e-09    1.617e-07    4.512e-06    2.487e-04  
  3.2000e-02    3.943e-09    1.667e-07    4.764e-06    2.345e-04  
  3.3000e-02    4.121e-09    1.720e-07    5.016e-06    2.522e-04  
  3.4000e-02    4.304e-09    1.775e-07    5.265e-06    2.522e-04  
  3.5000e-02    4.494e-09    1.833e-07    5.535e-06    2.487e-04  
  3.6000e-02    4.689e-09    1.894e-07    5.791e-06    2.700e-04  
  3.7000e-02    4.892e-09    1.957e-07    6.068e-06    2.558e-04  
  3.8000e-02    5.101e-09    2.023e-07    6.324e-06    2.771e-04  
  3.9000e-02    5.317e-09    2.092e-07    6.608e-06    2.558e-04  
  4.0000e-02    5.541e-09    2.164e-07    6.885e-06    2.842e-04  
  4.1000e-02    5.773e-09    2.239e-07    7.184e-06    2.771e-04  
  4.2000e-02    6.013e-09    2.317e-07    7.503e-06    2.984e-04  
  4.3000e-02    6.261e-09    2.398e-07    7.773e-06    3.197e-04  
  4.4000e-02    6.518e-09    2.482e-07    8.136e-06    2.700e-04  
  4.5000e-02    6.784e-09    2.570e-07    8.455e-06    3.624e-04  
  4.6000e-02    7.060e-09    2.662e-07    8.789e-06    3.197e-04  
  4.7000e-02    7.345e-09    2.757e-07    9.138e-06    3.340e-04  
  4.8000e-02    7.641e-09    2.856e-07    9.535e-06    3.482e-04  
  4.9000e-02    7.948e-09    2.959e-07    9.891e-06    3.979e-04  
  5.0000e-02    8.265e-09    3.066e-07    1.029e-05    3.553e-04  
  5.1000e-02    8.595e-09    3.177e-07    1.070e-05    3.979e-04  
  5.2000e-02    8.936e-09    3.293e-07    1.111e-05    4.121e-04  
  5.3000e-02    9.290e-09    3.412e-07    1.156e-05    4.121e-04  
  5.4000e-02    9.656e-09    3.537e-07    1.199e-05    4.476e-04  
  5.5000e-02    1.004e-08    3.667e-07    1.248e-05    4.263e-04  
  5.6000e-02    1.043e-08    3.801e-07    1.295e-05    4.903e-04  
  5.7000e-02    1.084e-08    3.941e-07    1.344e-05    4.761e-04  
  5.8000e-02    1.126e-08    4.086e-07    1.396e-05    4.903e-04  
  5.9000e-02    1.170e-08    4.236e-07    1.450e-05    5.187e-04  
  6.0000e-02    1.216e-08    4.392e-07    1.506e-05    5.329e-04  
  6.1000e-02    1.263e-08    4.554e-07    1.560e-05    5.613e-04  
  6.2000e-02    1.312e-08    4.723e-07    1.621e-05    5.471e-04  
  6.3000e-02    1.363e-08    4.897e-07    1.683e-05    6.040e-04  
  6.4000e-02    1.415e-08    5.078e-07    1.745e-05    6.182e-04  
  6.5000e-02    1.470e-08    5.266e-07    1.810e-05    6.253e-04  
  6.6000e-02    1.527e-08    5.461e-07    1.879e-05    6.466e-04  
  6.7000e-02    1.585e-08    5.663e-07    1.950e-05    6.892e-04  
  6.8000e-02    1.646e-08    5.873e-07    2.017e-05    7.176e-04  
  6.9000e-02    1.709e-08    6.089e-07    2.100e-05    6.608e-04  
  7.0000e-02    1.775e-08    6.315e-07    2.167e-05    8.384e-04  
  7.1000e-02    1.843e-08    6.549e-07    2.255e-05    6.679e-04  
  7.2000e-02    1.913e-08    6.791e-07    2.341e-05    8.811e-04  
  7.3000e-02    1.986e-08    7.042e-07    2.420e-05    8.527e-04  
  7.4000e-02    2.062e-08    7.303e-07    2.511e-05    7.958e-04  
  7.5000e-02    2.140e-08    7.572e-07    2.606e-05    9.095e-04  
  7.6000e-02    2.222e-08    7.852e-07    2.696e-05    9.521e-04  
  7.7000e-02    2.306e-08    8.142e-07    2.800e-05    8.953e-04  
  7.8000e-02    2.394e-08    8.443e-07    2.899e-05    1.037e-03  
  7.9000e-02    2.485e-08    8.754e-07    3.007e-05    9.948e-04  
  8.0000e-02    2.579e-08    9.077e-07    3.114e-05    1.080e-03  
  8.1000e-02    2.676e-08    9.412e-07    3.230e-05    1.066e-03  
  8.2000e-02    2.778e-08    9.758e-07    3.344e-05    1.165e-03  
  8.3000e-02    2.882e-08    1.012e-06    3.467e-05    1.137e-03  
  8.4000e-02    2.991e-08    1.049e-06    3.591e-05    1.236e-03  
  8.5000e-02    3.104e-08    1.088e-06    3.722e-05    1.236e-03  
  8.6000e-02    3.221e-08    1.127e-06    3.854e-05    1.307e-03  
  8.7000e-02    3.342e-08    1.169e-06    3.998e-05    1.322e-03  
  8.8000e-02    3.468e-08    1.212e-06    4.140e-05    1.435e-03  
  8.9000e-02    3.598e-08    1.256e-06    4.282e-05    1.421e-03  
  9.0000e-02    3.733e-08    1.302e-06    4.447e-05    1.421e-03  
  9.1000e-02    3.873e-08    1.350e-06    4.596e-05    1.648e-03  
  9.2000e-02    4.018e-08    1.399e-06    4.768e-05    1.492e-03  
  9.3000e-02    4.168e-08    1.450e-06    4.934e-05    1.720e-03  
  9.4000e-02    4.324e-08    1.503e-06    5.109e-05    1.663e-03  
  9.5000e-02    4.485e-08    1.558e-06    5.294e-05    1.748e-03  
  9.6000e-02    4.653e-08    1.615e-06    5.483e-05    1.847e-03  
  9.7000e-02    4.826e-08    1.673e-06    5.674e-05    1.890e-03  
  9.8000e-02    5.006e-08    1.734e-06    5.876e-05    1.918e-03  
  9.9000e-02    5.192e-08    1.797e-06    6.088e-05    2.018e-03  
    0.10000     5.385e-08    1.863e-06    6.297e-05    2.117e-03  
y
x

        volt    param      
                    gx4    
   -0.10000       0.       
 -9.9000e-02      0.       
 -9.8000e-02      0.       
 -9.7000e-02      0.       
 -9.6000e-02   -5.385e+04  
 -9.5000e-02    1.634e+05  
 -9.4000e-02   -1.654e+05  
 -9.3000e-02    5.585e+04  
 -9.2000e-02     -0.1847   
 -9.1000e-02    7.105e-02  
 -9.0000e-02     -0.2274   
 -8.9000e-02    7.105e-02  
 -8.8000e-02     -0.1705   
 -8.7000e-02   -1.421e-02  
 -8.6000e-02   -2.842e-02  
 -8.5000e-02     -0.1705   
 -8.4000e-02    4.263e-02  
 -8.3000e-02   -5.684e-02  
 -8.2000e-02     -0.1279   
 -8.1000e-02    2.842e-02  
 -8.0000e-02     -0.1421   
 -7.9000e-02    2.842e-02  
 -7.8000e-02   -7.105e-02  
 -7.7000e-02   -5.684e-02  
 -7.6000e-02   -1.421e-02  
 -7.5000e-02     -0.1279   
 -7.4000e-02    7.105e-02  
 -7.3000e-02   -9.948e-02  
 -7.2000e-02   -4.263e-02  
 -7.1000e-02   -4.263e-02  
 -7.0000e-02   -1.421e-02  
 -6.9000e-02   -2.842e-02  
 -6.8000e-02   -7.105e-02  
 -6.7000e-02    1.421e-02  
 -6.6000e-02   -8.527e-02  
 -6.5000e-02    1.421e-02  
 -6.4000e-02   -8.527e-02  
 -6.3000e-02    4.263e-02  
 -6.2000e-02   -5.684e-02  
 -6.1000e-02   -5.684e-02  
 -6.0000e-02   -1.407e-13  
 -5.9000e-02   -4.974e-02  
 -5.8000e-02    2.132e-02  
 -5.7000e-02   -3.553e-02  
 -5.6000e-02   -4.263e-02  
 -5.5000e-02   -2.842e-02  
 -5.4000e-02   -5.844e-14  
 -5.3000e-02   -2.842e-02  
 -5.2000e-02   -2.132e-02  
 -5.1000e-02   -2.132e-02  
 -5.0000e-02    7.105e-03  
 -4.9000e-02   -6.395e-02  
 -4.8000e-02    2.132e-02  
 -4.7000e-02   -4.263e-02  
 -4.6000e-02    2.842e-02  
 -4.5000e-02   -8.527e-02  
 -4.4000e-02    3.553e-02  
 -4.3000e-02   -2.132e-02  
 -4.2000e-02   -2.842e-02  
 -4.1000e-02    2.132e-02  
 -4.0000e-02   -8.527e-02  
 -3.9000e-02    7.105e-02  
 -3.8000e-02   -5.684e-02  
 -3.7000e-02   -2.132e-02  
 -3.6000e-02    2.842e-02  
 -3.5000e-02   -6.395e-02  
 -3.4000e-02    4.974e-02  
 -3.3000e-02   -4.974e-02  
 -3.2000e-02    2.542e-14  
 -3.1000e-02   -1.421e-02  
 -3.0000e-02    1.421e-02  
 -2.9000e-02   -2.842e-02  
 -2.8000e-02    1.421e-02  
 -2.7000e-02   -3.908e-02  
 -2.6000e-02    4.974e-02  
 -2.5000e-02   -4.619e-02  
 -2.4000e-02    3.553e-03  
 -2.3000e-02    1.066e-02  
 -2.2000e-02   -7.105e-03  
 -2.1000e-02   -7.105e-03  
 -2.0000e-02   -1.066e-02  
 -1.9000e-02   -3.553e-03  
 -1.8000e-02    1.421e-02  
 -1.7000e-02   -5.329e-02  
 -1.6000e-02    4.263e-02  
 -1.5000e-02   -4.619e-02  
 -1.4000e-02   -1.421e-02  
 -1.3000e-02    1.421e-02  
 -1.2000e-02   -1.954e-02  
 -1.1000e-02   -1.954e-02  
 -1.0000e-02   -1.776e-03  
 -9.0000e-03   -7.105e-03  
 -8.0000e-03   -1.243e-02  
 -7.0000e-03    7.105e-03  
 -6.0000e-03   -1.599e-02  
 -5.0000e-03    1.066e-02  
 -4.0000e-03   -1.243e-02  
 -3.0000e-03    7.994e-03  
 -2.0000e-03    8.882e-04  
 -1.0000e-03   -2.665e-03  
    0.          1.110e-02  
  1.0000e-03   -4.441e-03  
  2.0000e-03    5.329e-03  
  3.0000e-03    3.220e-03  
  4.0000e-03    1.776e-03  
  5.0000e-03    7.772e-04  
  6.0000e-03    8.882e-04  
  7.0000e-03   -2.331e-03  
  8.0000e-03   -2.665e-03  
  9.0000e-03    2.776e-03  
  1.0000e-02   -1.066e-02  
  1.1000e-02   -8.882e-04  
  1.2000e-02    1.332e-03  
  1.3000e-02   -3.553e-03  
  1.4000e-02   -7.994e-03  
  1.5000e-02    9.770e-03  
  1.6000e-02   -3.553e-03  
  1.7000e-02   -7.105e-03  
  1.8000e-02    1.599e-02  
  1.9000e-02    3.553e-03  
  2.0000e-02   -3.553e-03  
  2.1000e-02    1.243e-02  
  2.2000e-02    1.776e-02  
  2.3000e-02   -1.599e-02  
  2.4000e-02    5.507e-02  
  2.5000e-02   -3.553e-02  
  2.6000e-02    3.553e-02  
  2.7000e-02    7.105e-03  
  2.8000e-02    7.105e-03  
  2.9000e-02    1.776e-02  
  3.0000e-02   -1.421e-02  
  3.1000e-02    2.842e-02  
  3.2000e-02    3.553e-03  
  3.3000e-02   -1.421e-02  
  3.4000e-02    1.776e-02  
  3.5000e-02   -2.711e-14  
  3.6000e-02   -3.553e-03  
  3.7000e-02    2.132e-02  
  3.8000e-02   -1.421e-02  
  3.9000e-02    2.132e-02  
  4.0000e-02   -2.132e-02  
  4.1000e-02    2.842e-02  
  4.2000e-02   -7.105e-03  
  4.3000e-02    2.132e-02  
  4.4000e-02    2.132e-02  
  4.5000e-02   -4.974e-02  
  4.6000e-02    9.237e-02  
  4.7000e-02   -4.263e-02  
  4.8000e-02    1.421e-02  
  4.9000e-02    1.421e-02  
  5.0000e-02    4.974e-02  
  5.1000e-02   -4.263e-02  
  5.2000e-02    4.263e-02  
  5.3000e-02    1.421e-02  
  5.4000e-02    1.681e-15  
  5.5000e-02    3.553e-02  
  5.6000e-02   -2.132e-02  
  5.7000e-02    6.395e-02  
  5.8000e-02   -1.421e-02  
  5.9000e-02    1.421e-02  
  6.0000e-02    2.842e-02  
  6.1000e-02    1.421e-02  
  6.2000e-02    2.842e-02  
  6.3000e-02   -1.421e-02  
  6.4000e-02    5.684e-02  
  6.5000e-02    1.421e-02  
  6.6000e-02    7.105e-03  
  6.7000e-02    2.132e-02  
  6.8000e-02    4.263e-02  
  6.9000e-02    2.842e-02  
  7.0000e-02   -5.684e-02  
  7.1000e-02      0.1776   
  7.2000e-02     -0.1705   
  7.3000e-02      0.2132   
  7.4000e-02   -2.842e-02  
  7.5000e-02   -5.684e-02  
  7.6000e-02      0.1137   
  7.7000e-02    4.263e-02  
  7.8000e-02   -5.684e-02  
  7.9000e-02      0.1421   
  8.0000e-02   -4.263e-02  
  8.1000e-02    8.527e-02  
  8.2000e-02   -1.421e-02  
  8.3000e-02    9.948e-02  
  8.4000e-02   -2.842e-02  
  8.5000e-02    9.948e-02  
  8.6000e-02    6.722e-15  
  8.7000e-02    7.105e-02  
  8.8000e-02    1.421e-02  
  8.9000e-02      0.1137   
  9.0000e-02   -1.421e-02  
  9.1000e-02   -6.722e-15  
  9.2000e-02      0.2274   
  9.3000e-02     -0.1563   
  9.4000e-02      0.2274   
  9.5000e-02   -5.684e-02  
  9.6000e-02    8.527e-02  
  9.7000e-02    9.948e-02  
  9.8000e-02    4.263e-02  
  9.9000e-02    2.842e-02  
    0.10000     9.948e-02  
y
-----------------------------------------------
 ******  
 *sample netlist for bsim-mg

  ******  dc transfer curves tnom=  25.000 temp=  25.000 *****

   *** source        0:vgate =    0.2000        ***

x

        volt    param        param        param        param      
                    ids          gx           gx2          gx3    
   -0.10000    -1.255e-05   -5.385e-07   -1.863e-05   -6.297e-04  
 -9.9000e-02   -1.231e-05   -1.261e-02   -2.401e-03   -8.159e-02  
 -9.8000e-02   -1.207e-05    2.423e-04    -12.6067      -2.3825   
 -9.7000e-02   -1.184e-05    2.392e-04     12.8495    -1.260e+04  
 -9.6000e-02   -1.160e-05    2.362e-04   -3.054e-03    2.545e+04  
 -9.5000e-02   -1.137e-05    2.331e-04   -3.044e-03   -1.285e+04  
 -9.4000e-02   -1.115e-05    2.301e-04   -3.033e-03    1.064e-02  
 -9.3000e-02   -1.092e-05    2.271e-04   -3.022e-03    1.091e-02  
 -9.2000e-02   -1.070e-05    2.241e-04   -3.010e-03    1.125e-02  
 -9.1000e-02   -1.048e-05    2.211e-04   -2.998e-03    1.175e-02  
 -9.0000e-02   -1.027e-05    2.181e-04   -2.985e-03    1.209e-02  
 -8.9000e-02   -1.005e-05    2.152e-04   -2.972e-03    1.245e-02  
 -8.8000e-02   -9.845e-06    2.122e-04   -2.959e-03    1.296e-02  
 -8.7000e-02   -9.639e-06    2.093e-04   -2.945e-03    1.309e-02  
 -8.6000e-02   -9.436e-06    2.064e-04   -2.931e-03    1.384e-02  
 -8.5000e-02   -9.235e-06    2.035e-04   -2.917e-03    1.398e-02  
 -8.4000e-02   -9.037e-06    2.006e-04   -2.902e-03    1.448e-02  
 -8.3000e-02   -8.842e-06    1.977e-04   -2.887e-03    1.488e-02  
 -8.2000e-02   -8.650e-06    1.949e-04   -2.871e-03    1.533e-02  
 -8.1000e-02   -8.461e-06    1.920e-04   -2.855e-03    1.569e-02  
 -8.0000e-02   -8.275e-06    1.892e-04   -2.838e-03    1.613e-02  
 -7.9000e-02   -8.091e-06    1.864e-04   -2.821e-03    1.651e-02  
 -7.8000e-02   -7.910e-06    1.836e-04   -2.804e-03    1.702e-02  
 -7.7000e-02   -7.732e-06    1.808e-04   -2.786e-03    1.741e-02  
 -7.6000e-02   -7.557e-06    1.781e-04   -2.768e-03    1.781e-02  
 -7.5000e-02   -7.384e-06    1.754e-04   -2.749e-03    1.826e-02  
 -7.4000e-02   -7.214e-06    1.727e-04   -2.730e-03    1.874e-02  
 -7.3000e-02   -7.047e-06    1.700e-04   -2.710e-03    1.913e-02  
 -7.2000e-02   -6.882e-06    1.673e-04   -2.690e-03    1.958e-02  
 -7.1000e-02   -6.720e-06    1.646e-04   -2.670e-03    2.009e-02  
 -7.0000e-02   -6.561e-06    1.620e-04   -2.649e-03    2.039e-02  
 -6.9000e-02   -6.404e-06    1.594e-04   -2.628e-03    2.105e-02  
 -6.8000e-02   -6.250e-06    1.568e-04   -2.606e-03    2.137e-02  
 -6.7000e-02   -6.098e-06    1.543e-04   -2.583e-03    2.190e-02  
 -6.6000e-02   -5.949e-06    1.517e-04   -2.560e-03    2.230e-02  
 -6.5000e-02   -5.802e-06    1.492e-04   -2.537e-03    2.281e-02  
 -6.4000e-02   -5.658e-06    1.467e-04   -2.513e-03    2.331e-02  
 -6.3000e-02   -5.516e-06    1.443e-04   -2.489e-03    2.373e-02  
 -6.2000e-02   -5.377e-06    1.418e-04   -2.464e-03    2.427e-02  
 -6.1000e-02   -5.240e-06    1.394e-04   -2.439e-03    2.469e-02  
 -6.0000e-02   -5.105e-06    1.370e-04   -2.414e-03    2.519e-02  
 -5.9000e-02   -4.973e-06    1.347e-04   -2.387e-03    2.571e-02  
 -5.8000e-02   -4.842e-06    1.323e-04   -2.361e-03    2.618e-02  
 -5.7000e-02   -4.715e-06    1.300e-04   -2.334e-03    2.667e-02  
 -5.6000e-02   -4.589e-06    1.277e-04   -2.306e-03    2.715e-02  
 -5.5000e-02   -4.466e-06    1.255e-04   -2.278e-03    2.767e-02  
 -5.4000e-02   -4.345e-06    1.233e-04   -2.249e-03    2.806e-02  
 -5.3000e-02   -4.226e-06    1.211e-04   -2.220e-03    2.870e-02  
 -5.2000e-02   -4.109e-06    1.189e-04   -2.191e-03    2.908e-02  
 -5.1000e-02   -3.994e-06    1.168e-04   -2.160e-03    2.956e-02  
 -5.0000e-02   -3.882e-06    1.147e-04   -2.130e-03    3.008e-02  
 -4.9000e-02   -3.771e-06    1.126e-04   -2.099e-03    3.052e-02  
 -4.8000e-02   -3.663e-06    1.106e-04   -2.067e-03    3.103e-02  
 -4.7000e-02   -3.556e-06    1.086e-04   -2.036e-03    3.146e-02  
 -4.6000e-02   -3.451e-06    1.066e-04   -2.003e-03    3.194e-02  
 -4.5000e-02   -3.349e-06    1.047e-04   -1.970e-03    3.238e-02  
 -4.4000e-02   -3.248e-06    1.028e-04   -1.937e-03    3.293e-02  
 -4.3000e-02   -3.149e-06    1.009e-04   -1.903e-03    3.333e-02  
 -4.2000e-02   -3.051e-06    9.908e-05   -1.869e-03    3.386e-02  
 -4.1000e-02   -2.956e-06    9.728e-05   -1.834e-03    3.441e-02  
 -4.0000e-02   -2.862e-06    9.552e-05   -1.798e-03    3.499e-02  
 -3.9000e-02   -2.770e-06    9.380e-05   -1.762e-03    3.560e-02  
 -3.8000e-02   -2.679e-06    9.211e-05   -1.725e-03    3.631e-02  
 -3.7000e-02   -2.590e-06    9.046e-05   -1.687e-03    3.710e-02  
 -3.6000e-02   -2.503e-06    8.886e-05   -1.648e-03    3.802e-02  
 -3.5000e-02   -2.417e-06    8.729e-05   -1.607e-03    3.901e-02  
 -3.4000e-02   -2.333e-06    8.577e-05   -1.566e-03    4.021e-02  
 -3.3000e-02   -2.250e-06    8.429e-05   -1.523e-03    4.153e-02  
 -3.2000e-02   -2.169e-06    8.286e-05   -1.478e-03    4.296e-02  
 -3.1000e-02   -2.089e-06    8.147e-05   -1.432e-03    4.462e-02  
 -3.0000e-02   -2.010e-06    8.014e-05   -1.384e-03    4.631e-02  
 -2.9000e-02   -1.932e-06    7.886e-05   -1.334e-03    4.811e-02  
 -2.8000e-02   -1.856e-06    7.763e-05   -1.282e-03    4.993e-02  
 -2.7000e-02   -1.780e-06    7.645e-05   -1.229e-03    5.168e-02  
 -2.6000e-02   -1.706e-06    7.534e-05   -1.174e-03    5.324e-02  
 -2.5000e-02   -1.633e-06    7.427e-05   -1.119e-03    5.461e-02  
 -2.4000e-02   -1.561e-06    7.327e-05   -1.063e-03    5.559e-02  
 -2.3000e-02   -1.489e-06    7.232e-05   -1.006e-03    5.614e-02  
 -2.2000e-02   -1.419e-06    7.142e-05   -9.508e-04    5.618e-02  
 -2.1000e-02   -1.349e-06    7.058e-05   -8.963e-04    5.563e-02  
 -2.0000e-02   -1.280e-06    6.978e-05   -8.434e-04    5.454e-02  
 -1.9000e-02   -1.211e-06    6.904e-05   -7.927e-04    5.287e-02  
 -1.8000e-02   -1.144e-06    6.834e-05   -7.445e-04    5.075e-02  
 -1.7000e-02   -1.077e-06    6.768e-05   -6.991e-04    4.816e-02  
 -1.6000e-02   -1.010e-06    6.707e-05   -6.567e-04    4.540e-02  
 -1.5000e-02   -9.442e-07    6.648e-05   -6.173e-04    4.241e-02  
 -1.4000e-02   -8.788e-07    6.594e-05   -5.806e-04    3.945e-02  
 -1.3000e-02   -8.138e-07    6.542e-05   -5.465e-04    3.666e-02  
 -1.2000e-02   -7.494e-07    6.494e-05   -5.145e-04    3.412e-02  
 -1.1000e-02   -6.853e-07    6.448e-05   -4.843e-04    3.195e-02  
 -1.0000e-02   -6.216e-07    6.406e-05   -4.552e-04    3.023e-02  
 -9.0000e-03   -5.584e-07    6.366e-05   -4.268e-04    2.907e-02  
 -8.0000e-03   -4.954e-07    6.329e-05   -3.986e-04    2.838e-02  
 -7.0000e-03   -4.328e-07    6.295e-05   -3.699e-04    2.828e-02  
 -6.0000e-03   -3.704e-07    6.264e-05   -3.403e-04    2.868e-02  
 -5.0000e-03   -3.083e-07    6.236e-05   -3.095e-04    2.954e-02  
 -4.0000e-03   -2.464e-07    6.212e-05   -2.771e-04    3.082e-02  
 -3.0000e-03   -1.846e-07    6.191e-05   -2.428e-04    3.241e-02  
 -2.0000e-03   -1.230e-07    6.174e-05   -2.066e-04    3.426e-02  
 -1.0000e-03   -6.149e-08    6.162e-05   -1.684e-04    3.622e-02  
    0.         -1.924e-15    6.153e-05   -1.283e-04    3.820e-02  
  1.0000e-03    6.149e-08    6.149e-05   -8.661e-05    4.009e-02  
  2.0000e-03    1.230e-07    6.149e-05   -4.365e-05    4.172e-02  
  3.0000e-03    1.846e-07    6.153e-05   -3.702e-10    4.296e-02  
  4.0000e-03    2.464e-07    6.162e-05    4.365e-05    4.365e-02  
  5.0000e-03    3.083e-07    6.174e-05    8.661e-05    4.365e-02  
  6.0000e-03    3.704e-07    6.191e-05    1.283e-04    4.296e-02  
  7.0000e-03    4.328e-07    6.212e-05    1.684e-04    4.172e-02  
  8.0000e-03    4.954e-07    6.236e-05    2.066e-04    4.008e-02  
  9.0000e-03    5.584e-07    6.264e-05    2.428e-04    3.821e-02  
  1.0000e-02    6.216e-07    6.295e-05    2.771e-04    3.622e-02  
  1.1000e-02    6.853e-07    6.329e-05    3.095e-04    3.425e-02  
  1.2000e-02    7.494e-07    6.366e-05    3.403e-04    3.243e-02  
  1.3000e-02    8.138e-07    6.406e-05    3.699e-04    3.081e-02  
  1.4000e-02    8.788e-07    6.448e-05    3.986e-04    2.954e-02  
  1.5000e-02    9.442e-07    6.494e-05    4.268e-04    2.868e-02  
  1.6000e-02    1.010e-06    6.542e-05    4.552e-04    2.828e-02  
  1.7000e-02    1.077e-06    6.594e-05    4.843e-04    2.839e-02  
  1.8000e-02    1.144e-06    6.648e-05    5.145e-04    2.905e-02  
  1.9000e-02    1.211e-06    6.707e-05    5.465e-04    3.024e-02  
  2.0000e-02    1.280e-06    6.768e-05    5.806e-04    3.195e-02  
  2.1000e-02    1.349e-06    6.834e-05    6.172e-04    3.412e-02  
  2.2000e-02    1.419e-06    6.904e-05    6.567e-04    3.665e-02  
  2.3000e-02    1.489e-06    6.978e-05    6.991e-04    3.946e-02  
  2.4000e-02    1.561e-06    7.058e-05    7.445e-04    4.242e-02  
  2.5000e-02    1.633e-06    7.142e-05    7.927e-04    4.537e-02  
  2.6000e-02    1.706e-06    7.232e-05    8.434e-04    4.819e-02  
  2.7000e-02    1.780e-06    7.327e-05    8.963e-04    5.072e-02  
  2.8000e-02    1.856e-06    7.427e-05    9.508e-04    5.290e-02  
  2.9000e-02    1.932e-06    7.534e-05    1.006e-03    5.452e-02  
  3.0000e-02    2.010e-06    7.645e-05    1.063e-03    5.564e-02  
  3.1000e-02    2.089e-06    7.763e-05    1.119e-03    5.618e-02  
  3.2000e-02    2.169e-06    7.886e-05    1.174e-03    5.612e-02  
  3.3000e-02    2.250e-06    8.014e-05    1.229e-03    5.562e-02  
  3.4000e-02    2.333e-06    8.147e-05    1.282e-03    5.459e-02  
  3.5000e-02    2.417e-06    8.286e-05    1.334e-03    5.327e-02  
  3.6000e-02    2.503e-06    8.429e-05    1.384e-03    5.168e-02  
  3.7000e-02    2.590e-06    8.577e-05    1.432e-03    4.989e-02  
  3.8000e-02    2.679e-06    8.729e-05    1.478e-03    4.817e-02  
  3.9000e-02    2.770e-06    8.886e-05    1.523e-03    4.628e-02  
  4.0000e-02    2.862e-06    9.046e-05    1.566e-03    4.461e-02  
  4.1000e-02    2.956e-06    9.211e-05    1.607e-03    4.299e-02  
  4.2000e-02    3.051e-06    9.380e-05    1.648e-03    4.151e-02  
  4.3000e-02    3.149e-06    9.552e-05    1.687e-03    4.020e-02  
  4.4000e-02    3.248e-06    9.728e-05    1.725e-03    3.905e-02  
  4.5000e-02    3.349e-06    9.908e-05    1.762e-03    3.798e-02  
  4.6000e-02    3.451e-06    1.009e-04    1.798e-03    3.710e-02  
  4.7000e-02    3.556e-06    1.028e-04    1.834e-03    3.632e-02  
  4.8000e-02    3.663e-06    1.047e-04    1.869e-03    3.560e-02  
  4.9000e-02    3.771e-06    1.066e-04    1.903e-03    3.497e-02  
  5.0000e-02    3.882e-06    1.086e-04    1.937e-03    3.442e-02  
  5.1000e-02    3.994e-06    1.106e-04    1.970e-03    3.384e-02  
  5.2000e-02    4.109e-06    1.126e-04    2.003e-03    3.340e-02  
  5.3000e-02    4.226e-06    1.147e-04    2.036e-03    3.284e-02  
  5.4000e-02    4.345e-06    1.168e-04    2.067e-03    3.241e-02  
  5.5000e-02    4.466e-06    1.189e-04    2.099e-03    3.194e-02  
  5.6000e-02    4.589e-06    1.211e-04    2.130e-03    3.147e-02  
  5.7000e-02    4.715e-06    1.233e-04    2.160e-03    3.101e-02  
  5.8000e-02    4.842e-06    1.255e-04    2.191e-03    3.052e-02  
  5.9000e-02    4.973e-06    1.277e-04    2.220e-03    3.007e-02  
  6.0000e-02    5.105e-06    1.300e-04    2.249e-03    2.958e-02  
  6.1000e-02    5.240e-06    1.323e-04    2.278e-03    2.908e-02  
  6.2000e-02    5.377e-06    1.347e-04    2.306e-03    2.865e-02  
  6.3000e-02    5.516e-06    1.370e-04    2.334e-03    2.811e-02  
  6.4000e-02    5.658e-06    1.394e-04    2.361e-03    2.765e-02  
  6.5000e-02    5.802e-06    1.418e-04    2.387e-03    2.716e-02  
  6.6000e-02    5.949e-06    1.443e-04    2.414e-03    2.669e-02  
  6.7000e-02    6.098e-06    1.467e-04    2.439e-03    2.613e-02  
  6.8000e-02    6.250e-06    1.492e-04    2.464e-03    2.576e-02  
  6.9000e-02    6.404e-06    1.517e-04    2.489e-03    2.510e-02  
  7.0000e-02    6.561e-06    1.543e-04    2.513e-03    2.483e-02  
  7.1000e-02    6.720e-06    1.568e-04    2.537e-03    2.414e-02  
  7.2000e-02    6.882e-06    1.594e-04    2.561e-03    2.377e-02  
  7.3000e-02    7.047e-06    1.620e-04    2.583e-03    2.332e-02  
  7.4000e-02    7.214e-06    1.646e-04    2.606e-03    2.274e-02  
  7.5000e-02    7.384e-06    1.673e-04    2.628e-03    2.240e-02  
  7.6000e-02    7.557e-06    1.700e-04    2.649e-03    2.187e-02  
  7.7000e-02    7.732e-06    1.727e-04    2.670e-03    2.137e-02  
  7.8000e-02    7.910e-06    1.754e-04    2.690e-03    2.098e-02  
  7.9000e-02    8.091e-06    1.781e-04    2.710e-03    2.049e-02  
  8.0000e-02    8.275e-06    1.808e-04    2.730e-03    2.004e-02  
  8.1000e-02    8.461e-06    1.836e-04    2.749e-03    1.960e-02  
  8.2000e-02    8.650e-06    1.864e-04    2.768e-03    1.913e-02  
  8.3000e-02    8.842e-06    1.892e-04    2.786e-03    1.873e-02  
  8.4000e-02    9.037e-06    1.920e-04    2.804e-03    1.830e-02  
  8.5000e-02    9.235e-06    1.949e-04    2.821e-03    1.776e-02  
  8.6000e-02    9.436e-06    1.977e-04    2.838e-03    1.742e-02  
  8.7000e-02    9.639e-06    2.006e-04    2.855e-03    1.701e-02  
  8.8000e-02    9.845e-06    2.035e-04    2.871e-03    1.654e-02  
  8.9000e-02    1.005e-05    2.064e-04    2.887e-03    1.612e-02  
  9.0000e-02    1.027e-05    2.093e-04    2.902e-03    1.570e-02  
  9.1000e-02    1.048e-05    2.122e-04    2.917e-03    1.532e-02  
  9.2000e-02    1.070e-05    2.152e-04    2.931e-03    1.482e-02  
  9.3000e-02    1.092e-05    2.181e-04    2.945e-03    1.461e-02  
  9.4000e-02    1.115e-05    2.211e-04    2.959e-03    1.390e-02  
  9.5000e-02    1.137e-05    2.241e-04    2.972e-03    1.380e-02  
  9.6000e-02    1.160e-05    2.271e-04    2.985e-03    1.319e-02  
  9.7000e-02    1.184e-05    2.301e-04    2.998e-03    1.295e-02  
  9.8000e-02    1.207e-05    2.331e-04    3.010e-03    1.239e-02  
  9.9000e-02    1.231e-05    2.362e-04    3.022e-03    1.214e-02  
    0.10000     1.255e-05    2.392e-04    3.033e-03    1.170e-02  
y
x

        volt    param      
                    gx4    
   -0.10000    -2.117e-02  
 -9.9000e-02     -2.7471   
 -9.8000e-02    -80.9646   
 -9.7000e-02   -2.300e+03  
 -9.6000e-02   -1.260e+07  
 -9.5000e-02    3.806e+07  
 -9.4000e-02   -3.830e+07  
 -9.3000e-02    1.285e+07  
 -9.2000e-02      0.2700   
 -9.1000e-02      0.3411   
 -9.0000e-02      0.4974   
 -8.9000e-02      0.3411   
 -8.8000e-02      0.3553   
 -8.7000e-02      0.5116   
 -8.6000e-02      0.1279   
 -8.5000e-02      0.7532   
 -8.4000e-02      0.1421   
 -8.3000e-02      0.4974   
 -8.2000e-02      0.3979   
 -8.1000e-02      0.4547   
 -8.0000e-02      0.3553   
 -7.9000e-02      0.4405   
 -7.8000e-02      0.3837   
 -7.7000e-02      0.5116   
 -7.6000e-02      0.3837   
 -7.5000e-02      0.3979   
 -7.4000e-02      0.4547   
 -7.3000e-02      0.4832   
 -7.2000e-02      0.3837   
 -7.1000e-02      0.4547   
 -7.0000e-02      0.5116   
 -6.9000e-02      0.2984   
 -6.8000e-02      0.6537   
 -6.7000e-02      0.3268   
 -6.6000e-02      0.5258   
 -6.5000e-02      0.3979   
 -6.4000e-02      0.5116   
 -6.3000e-02      0.4974   
 -6.2000e-02      0.4263   
 -6.1000e-02      0.5400   
 -6.0000e-02      0.4192   
 -5.9000e-02      0.4974   
 -5.8000e-02      0.5187   
 -5.7000e-02      0.4690   
 -5.6000e-02      0.4903   
 -5.5000e-02      0.4832   
 -5.4000e-02      0.5187   
 -5.3000e-02      0.3908   
 -5.2000e-02      0.6395   
 -5.1000e-02      0.3837   
 -5.0000e-02      0.4761   
 -4.9000e-02      0.5187   
 -4.8000e-02      0.4405   
 -4.7000e-02      0.5116   
 -4.6000e-02      0.4263   
 -4.5000e-02      0.4832   
 -4.4000e-02      0.4405   
 -4.3000e-02      0.5471   
 -4.2000e-02      0.4050   
 -4.1000e-02      0.5258   
 -4.0000e-02      0.5542   
 -3.9000e-02      0.5755   
 -3.8000e-02      0.6111   
 -3.7000e-02      0.7105   
 -3.6000e-02      0.7887   
 -3.5000e-02      0.9237   
 -3.4000e-02      0.9877   
 -3.3000e-02      1.2008   
 -3.2000e-02      1.3216   
 -3.1000e-02      1.4282   
 -3.0000e-02      1.6627   
 -2.9000e-02      1.6911   
 -2.8000e-02      1.7941   
 -2.7000e-02      1.8261   
 -2.6000e-02      1.7515   
 -2.5000e-02      1.5596   
 -2.4000e-02      1.3678   
 -2.3000e-02      0.9770   
 -2.2000e-02      0.5542   
 -2.1000e-02    3.197e-02  
 -2.0000e-02     -0.5436   
 -1.9000e-02     -1.0907   
 -1.8000e-02     -1.6698   
 -1.7000e-02     -2.1245   
 -1.6000e-02     -2.5864   
 -1.5000e-02     -2.7640   
 -1.4000e-02     -2.9843   
 -1.3000e-02     -2.9594   
 -1.2000e-02     -2.7978   
 -1.1000e-02     -2.5331   
 -1.0000e-02     -2.1689   
 -9.0000e-03     -1.7213   
 -8.0000e-03     -1.1635   
 -7.0000e-03     -0.6875   
 -6.0000e-03   -9.770e-02  
 -5.0000e-03      0.3926   
 -4.0000e-03      0.8642   
 -3.0000e-03      1.2834   
 -2.0000e-03      1.5907   
 -1.0000e-03      1.8439   
    0.            1.9669   
  1.0000e-03      1.9802   
  2.0000e-03      1.8845   
  3.0000e-03      1.6266   
  4.0000e-03      1.2437   
  5.0000e-03      0.6913   
  6.0000e-03    1.777e-03  
  7.0000e-03     -0.6952   
  8.0000e-03     -1.2387   
  9.0000e-03     -1.6344   
  1.0000e-02     -1.8747   
  1.1000e-02     -1.9851   
  1.2000e-02     -1.9740   
  1.3000e-02     -1.8234   
  1.4000e-02     -1.6165   
  1.5000e-02     -1.2665   
  1.6000e-02     -0.8669   
  1.7000e-02     -0.4015   
  1.8000e-02      0.1172   
  1.9000e-02      0.6590   
  2.0000e-02      1.1919   
  2.1000e-02      1.7106   
  2.2000e-02      2.1618   
  2.3000e-02      2.5313   
  2.4000e-02      2.8155   
  2.5000e-02      2.9523   
  2.6000e-02      2.9559   
  2.7000e-02      2.8209   
  2.8000e-02      2.5295   
  2.9000e-02      2.1743   
  3.0000e-02      1.6236   
  3.1000e-02      1.1191   
  3.2000e-02      0.5436   
  3.3000e-02   -6.395e-02  
  3.4000e-02     -0.4974   
  3.5000e-02     -1.0338   
  3.6000e-02     -1.3216   
  3.7000e-02     -1.5810   
  3.8000e-02     -1.7977   
  3.9000e-02     -1.7160   
  4.0000e-02     -1.8865   
  4.1000e-02     -1.6769   
  4.2000e-02     -1.6200   
  4.3000e-02     -1.4779   
  4.4000e-02     -1.3074   
  4.5000e-02     -1.1511   
  4.6000e-02     -1.0729   
  4.7000e-02     -0.8740   
  4.8000e-02     -0.7816   
  4.9000e-02     -0.7248   
  5.0000e-02     -0.6253   
  5.1000e-02     -0.5542   
  5.2000e-02     -0.5826   
  5.3000e-02     -0.4334   
  5.4000e-02     -0.5613   
  5.5000e-02     -0.4263   
  5.6000e-02     -0.4761   
  5.7000e-02     -0.4690   
  5.8000e-02     -0.4619   
  5.9000e-02     -0.4832   
  6.0000e-02     -0.4547   
  6.1000e-02     -0.4903   
  6.2000e-02     -0.4974   
  6.3000e-02     -0.4334   
  6.4000e-02     -0.5400   
  6.5000e-02     -0.4619   
  6.6000e-02     -0.4903   
  6.7000e-02     -0.4690   
  6.8000e-02     -0.5613   
  6.9000e-02     -0.3624   
  7.0000e-02     -0.6608   
  7.1000e-02     -0.2700   
  7.2000e-02     -0.6892   
  7.3000e-02     -0.3695   
  7.4000e-02     -0.4547   
  7.5000e-02     -0.5826   
  7.6000e-02     -0.3411   
  7.7000e-02     -0.5258   
  7.8000e-02     -0.4974   
  7.9000e-02     -0.3979   
  8.0000e-02     -0.4832   
  8.1000e-02     -0.4547   
  8.2000e-02     -0.4405   
  8.3000e-02     -0.4690   
  8.4000e-02     -0.3979   
  8.5000e-02     -0.4263   
  8.6000e-02     -0.5400   
  8.7000e-02     -0.3411   
  8.8000e-02     -0.4121   
  8.9000e-02     -0.4690   
  9.0000e-02     -0.4263   
  9.1000e-02     -0.4121   
  9.2000e-02     -0.3837   
  9.3000e-02     -0.4974   
  9.4000e-02     -0.2132   
  9.5000e-02     -0.7105   
  9.6000e-02   -9.948e-02  
  9.7000e-02     -0.6111   
  9.8000e-02     -0.2416   
  9.9000e-02     -0.5542   
    0.10000      -0.2558   
y
-----------------------------------------------
 ******  
 *sample netlist for bsim-mg

  ******  dc transfer curves tnom=  25.000 temp=  25.000 *****

   *** source        0:vgate =    0.4000        ***

x

        volt    param        param        param        param      
                    ids          gx           gx2          gx3    
   -0.10000    -9.490e-05   -1.255e-04   -2.392e-03   -3.033e-02  
 -9.9000e-02   -9.401e-05     -0.1075      -0.3647      -5.4248   
 -9.8000e-02   -9.312e-05    8.919e-04   -107.3276    -362.3389   
 -9.7000e-02   -9.222e-05    8.922e-04    108.3450    -1.069e+05  
 -9.6000e-02   -9.133e-05    8.925e-04    3.065e-04    2.156e+05  
 -9.5000e-02   -9.044e-05    8.929e-04    3.351e-04   -1.083e+05  
 -9.4000e-02   -8.954e-05    8.933e-04    3.639e-04    2.855e-02  
 -9.3000e-02   -8.865e-05    8.937e-04    3.930e-04    2.883e-02  
 -9.2000e-02   -8.775e-05    8.941e-04    4.225e-04    2.913e-02  
 -9.1000e-02   -8.686e-05    8.946e-04    4.522e-04    2.949e-02  
 -9.0000e-02   -8.596e-05    8.951e-04    4.822e-04    2.967e-02  
 -8.9000e-02   -8.507e-05    8.957e-04    5.125e-04    3.006e-02  
 -8.8000e-02   -8.417e-05    8.963e-04    5.431e-04    3.021e-02  
 -8.7000e-02   -8.327e-05    8.969e-04    5.738e-04    3.062e-02  
 -8.6000e-02   -8.237e-05    8.975e-04    6.049e-04    3.072e-02  
 -8.5000e-02   -8.148e-05    8.982e-04    6.362e-04    3.114e-02  
 -8.4000e-02   -8.058e-05    8.989e-04    6.679e-04    3.124e-02  
 -8.3000e-02   -7.968e-05    8.996e-04    6.996e-04    3.168e-02  
 -8.2000e-02   -7.878e-05    9.004e-04    7.317e-04    3.178e-02  
 -8.1000e-02   -7.787e-05    9.012e-04    7.641e-04    3.210e-02  
 -8.0000e-02   -7.697e-05    9.020e-04    7.968e-04    3.239e-02  
 -7.9000e-02   -7.607e-05    9.028e-04    8.296e-04    3.264e-02  
 -7.8000e-02   -7.516e-05    9.037e-04    8.629e-04    3.288e-02  
 -7.7000e-02   -7.426e-05    9.047e-04    8.964e-04    3.330e-02  
 -7.6000e-02   -7.335e-05    9.056e-04    9.302e-04    3.342e-02  
 -7.5000e-02   -7.244e-05    9.066e-04    9.645e-04    3.388e-02  
 -7.4000e-02   -7.153e-05    9.077e-04    9.989e-04    3.422e-02  
 -7.3000e-02   -7.062e-05    9.087e-04    1.034e-03    3.439e-02  
 -7.2000e-02   -6.971e-05    9.098e-04    1.069e-03    3.490e-02  
 -7.1000e-02   -6.880e-05    9.110e-04    1.104e-03    3.519e-02  
 -7.0000e-02   -6.789e-05    9.122e-04    1.140e-03    3.556e-02  
 -6.9000e-02   -6.697e-05    9.134e-04    1.177e-03    3.595e-02  
 -6.8000e-02   -6.606e-05    9.146e-04    1.213e-03    3.624e-02  
 -6.7000e-02   -6.514e-05    9.159e-04    1.250e-03    3.675e-02  
 -6.6000e-02   -6.422e-05    9.172e-04    1.288e-03    3.699e-02  
 -6.5000e-02   -6.330e-05    9.186e-04    1.325e-03    3.726e-02  
 -6.4000e-02   -6.238e-05    9.200e-04    1.363e-03    3.777e-02  
 -6.3000e-02   -6.146e-05    9.214e-04    1.401e-03    3.784e-02  
 -6.2000e-02   -6.053e-05    9.229e-04    1.440e-03    3.816e-02  
 -6.1000e-02   -5.961e-05    9.244e-04    1.478e-03    3.831e-02  
 -6.0000e-02   -5.868e-05    9.260e-04    1.517e-03    3.838e-02  
 -5.9000e-02   -5.775e-05    9.276e-04    1.555e-03    3.838e-02  
 -5.8000e-02   -5.682e-05    9.292e-04    1.593e-03    3.828e-02  
 -5.7000e-02   -5.589e-05    9.309e-04    1.631e-03    3.809e-02  
 -5.6000e-02   -5.495e-05    9.326e-04    1.668e-03    3.766e-02  
 -5.5000e-02   -5.401e-05    9.343e-04    1.704e-03    3.723e-02  
 -5.4000e-02   -5.308e-05    9.361e-04    1.740e-03    3.648e-02  
 -5.3000e-02   -5.214e-05    9.379e-04    1.775e-03    3.570e-02  
 -5.2000e-02   -5.120e-05    9.398e-04    1.808e-03    3.460e-02  
 -5.1000e-02   -5.025e-05    9.416e-04    1.840e-03    3.332e-02  
 -5.0000e-02   -4.931e-05    9.435e-04    1.870e-03    3.187e-02  
 -4.9000e-02   -4.836e-05    9.454e-04    1.898e-03    3.009e-02  
 -4.8000e-02   -4.741e-05    9.474e-04    1.924e-03    2.820e-02  
 -4.7000e-02   -4.646e-05    9.494e-04    1.947e-03    2.593e-02  
 -4.6000e-02   -4.551e-05    9.513e-04    1.968e-03    2.347e-02  
 -4.5000e-02   -4.455e-05    9.533e-04    1.986e-03    2.075e-02  
 -4.4000e-02   -4.359e-05    9.554e-04    2.001e-03    1.780e-02  
 -4.3000e-02   -4.263e-05    9.574e-04    2.012e-03    1.456e-02  
 -4.2000e-02   -4.167e-05    9.594e-04    2.019e-03    1.114e-02  
 -4.1000e-02   -4.071e-05    9.614e-04    2.023e-03    7.482e-03  
 -4.0000e-02   -3.974e-05    9.634e-04    2.022e-03    3.574e-03  
 -3.9000e-02   -3.878e-05    9.654e-04    2.018e-03   -4.263e-04  
 -3.8000e-02   -3.781e-05    9.674e-04    2.009e-03   -4.633e-03  
 -3.7000e-02   -3.683e-05    9.694e-04    1.995e-03   -8.967e-03  
 -3.6000e-02   -3.586e-05    9.714e-04    1.977e-03   -1.346e-02  
 -3.5000e-02   -3.489e-05    9.733e-04    1.955e-03   -1.787e-02  
 -3.4000e-02   -3.391e-05    9.752e-04    1.928e-03   -2.246e-02  
 -3.3000e-02   -3.293e-05    9.771e-04    1.896e-03   -2.697e-02  
 -3.2000e-02   -3.195e-05    9.789e-04    1.861e-03   -3.156e-02  
 -3.1000e-02   -3.097e-05    9.807e-04    1.820e-03   -3.585e-02  
 -3.0000e-02   -2.998e-05    9.824e-04    1.776e-03   -4.025e-02  
 -2.9000e-02   -2.900e-05    9.841e-04    1.728e-03   -4.439e-02  
 -2.8000e-02   -2.801e-05    9.857e-04    1.675e-03   -4.837e-02  
 -2.7000e-02   -2.702e-05    9.872e-04    1.620e-03   -5.215e-02  
 -2.6000e-02   -2.603e-05    9.887e-04    1.561e-03   -5.561e-02  
 -2.5000e-02   -2.504e-05    9.902e-04    1.499e-03   -5.889e-02  
 -2.4000e-02   -2.405e-05    9.915e-04    1.435e-03   -6.176e-02  
 -2.3000e-02   -2.305e-05    9.928e-04    1.368e-03   -6.433e-02  
 -2.2000e-02   -2.206e-05    9.941e-04    1.300e-03   -6.655e-02  
 -2.1000e-02   -2.106e-05    9.952e-04    1.230e-03   -6.835e-02  
 -2.0000e-02   -2.006e-05    9.963e-04    1.159e-03   -6.978e-02  
 -1.9000e-02   -1.907e-05    9.973e-04    1.088e-03   -7.082e-02  
 -1.8000e-02   -1.807e-05    9.983e-04    1.016e-03   -7.139e-02  
 -1.7000e-02   -1.707e-05    9.992e-04    9.450e-04   -7.158e-02  
 -1.6000e-02   -1.607e-05    1.000e-03    8.743e-04   -7.134e-02  
 -1.5000e-02   -1.506e-05    1.001e-03    8.047e-04   -7.070e-02  
 -1.4000e-02   -1.406e-05    1.001e-03    7.365e-04   -6.963e-02  
 -1.3000e-02   -1.306e-05    1.002e-03    6.701e-04   -6.823e-02  
 -1.2000e-02   -1.206e-05    1.003e-03    6.058e-04   -6.637e-02  
 -1.1000e-02   -1.105e-05    1.003e-03    5.440e-04   -6.426e-02  
 -1.0000e-02   -1.005e-05    1.003e-03    4.850e-04   -6.178e-02  
 -9.0000e-03   -9.045e-06    1.004e-03    4.290e-04   -5.904e-02  
 -8.0000e-03   -8.041e-06    1.004e-03    3.761e-04   -5.605e-02  
 -7.0000e-03   -7.036e-06    1.004e-03    3.265e-04   -5.287e-02  
 -6.0000e-03   -6.031e-06    1.005e-03    2.804e-04   -4.955e-02  
 -5.0000e-03   -5.026e-06    1.005e-03    2.378e-04   -4.612e-02  
 -4.0000e-03   -4.021e-06    1.005e-03    1.985e-04   -4.267e-02  
 -3.0000e-03   -3.016e-06    1.005e-03    1.626e-04   -3.925e-02  
 -2.0000e-03   -2.011e-06    1.005e-03    1.298e-04   -3.592e-02  
 -1.0000e-03   -1.005e-06    1.005e-03    9.985e-05   -3.280e-02  
    0.         -9.291e-15    1.005e-03    7.242e-05   -2.993e-02  
  1.0000e-03    1.005e-06    1.005e-03    4.704e-05   -2.743e-02  
  2.0000e-03    2.011e-06    1.005e-03    2.312e-05   -2.538e-02  
  3.0000e-03    3.016e-06    1.005e-03    1.518e-10   -2.391e-02  
  4.0000e-03    4.021e-06    1.005e-03   -2.313e-05   -2.312e-02  
  5.0000e-03    5.026e-06    1.005e-03   -4.704e-05   -2.313e-02  
  6.0000e-03    6.031e-06    1.005e-03   -7.242e-05   -2.391e-02  
  7.0000e-03    7.036e-06    1.005e-03   -9.985e-05   -2.538e-02  
  8.0000e-03    8.041e-06    1.005e-03   -1.298e-04   -2.743e-02  
  9.0000e-03    9.045e-06    1.005e-03   -1.626e-04   -2.993e-02  
  1.0000e-02    1.005e-05    1.004e-03   -1.985e-04   -3.280e-02  
  1.1000e-02    1.105e-05    1.004e-03   -2.378e-04   -3.592e-02  
  1.2000e-02    1.206e-05    1.004e-03   -2.804e-04   -3.925e-02  
  1.3000e-02    1.306e-05    1.003e-03   -3.265e-04   -4.266e-02  
  1.4000e-02    1.406e-05    1.003e-03   -3.761e-04   -4.613e-02  
  1.5000e-02    1.506e-05    1.003e-03   -4.290e-04   -4.953e-02  
  1.6000e-02    1.607e-05    1.002e-03   -4.850e-04   -5.289e-02  
  1.7000e-02    1.707e-05    1.001e-03   -5.440e-04   -5.605e-02  
  1.8000e-02    1.807e-05    1.001e-03   -6.058e-04   -5.903e-02  
  1.9000e-02    1.907e-05    1.000e-03   -6.701e-04   -6.179e-02  
  2.0000e-02    2.006e-05    9.992e-04   -7.365e-04   -6.424e-02  
  2.1000e-02    2.106e-05    9.983e-04   -8.047e-04   -6.639e-02  
  2.2000e-02    2.206e-05    9.973e-04   -8.743e-04   -6.822e-02  
  2.3000e-02    2.305e-05    9.963e-04   -9.450e-04   -6.963e-02  
  2.4000e-02    2.405e-05    9.952e-04   -1.016e-03   -7.071e-02  
  2.5000e-02    2.504e-05    9.941e-04   -1.088e-03   -7.132e-02  
  2.6000e-02    2.603e-05    9.928e-04   -1.159e-03   -7.159e-02  
  2.7000e-02    2.702e-05    9.915e-04   -1.230e-03   -7.139e-02  
  2.8000e-02    2.801e-05    9.902e-04   -1.300e-03   -7.081e-02  
  2.9000e-02    2.900e-05    9.887e-04   -1.368e-03   -6.977e-02  
  3.0000e-02    2.998e-05    9.872e-04   -1.435e-03   -6.839e-02  
  3.1000e-02    3.097e-05    9.857e-04   -1.499e-03   -6.652e-02  
  3.2000e-02    3.195e-05    9.841e-04   -1.561e-03   -6.433e-02  
  3.3000e-02    3.293e-05    9.824e-04   -1.620e-03   -6.177e-02  
  3.4000e-02    3.391e-05    9.807e-04   -1.675e-03   -5.888e-02  
  3.5000e-02    3.489e-05    9.789e-04   -1.728e-03   -5.561e-02  
  3.6000e-02    3.586e-05    9.771e-04   -1.776e-03   -5.216e-02  
  3.7000e-02    3.683e-05    9.752e-04   -1.820e-03   -4.836e-02  
  3.8000e-02    3.781e-05    9.733e-04   -1.861e-03   -4.440e-02  
  3.9000e-02    3.878e-05    9.714e-04   -1.896e-03   -4.025e-02  
  4.0000e-02    3.974e-05    9.694e-04   -1.928e-03   -3.588e-02  
  4.1000e-02    4.071e-05    9.674e-04   -1.955e-03   -3.153e-02  
  4.2000e-02    4.167e-05    9.654e-04   -1.977e-03   -2.698e-02  
  4.3000e-02    4.263e-05    9.634e-04   -1.995e-03   -2.242e-02  
  4.4000e-02    4.359e-05    9.614e-04   -2.009e-03   -1.793e-02  
  4.5000e-02    4.455e-05    9.594e-04   -2.018e-03   -1.342e-02  
  4.6000e-02    4.551e-05    9.574e-04   -2.022e-03   -8.981e-03  
  4.7000e-02    4.646e-05    9.554e-04   -2.023e-03   -4.611e-03  
  4.8000e-02    4.741e-05    9.533e-04   -2.019e-03   -4.547e-04  
  4.9000e-02    4.836e-05    9.513e-04   -2.012e-03    3.602e-03  
  5.0000e-02    4.931e-05    9.494e-04   -2.001e-03    7.461e-03  
  5.1000e-02    5.025e-05    9.474e-04   -1.986e-03    1.115e-02  
  5.2000e-02    5.120e-05    9.454e-04   -1.968e-03    1.456e-02  
  5.3000e-02    5.214e-05    9.435e-04   -1.947e-03    1.780e-02  
  5.4000e-02    5.308e-05    9.416e-04   -1.924e-03    2.075e-02  
  5.5000e-02    5.401e-05    9.398e-04   -1.898e-03    2.348e-02  
  5.6000e-02    5.495e-05    9.379e-04   -1.870e-03    2.593e-02  
  5.7000e-02    5.589e-05    9.361e-04   -1.840e-03    2.816e-02  
  5.8000e-02    5.682e-05    9.343e-04   -1.808e-03    3.014e-02  
  5.9000e-02    5.775e-05    9.326e-04   -1.775e-03    3.183e-02  
  6.0000e-02    5.868e-05    9.309e-04   -1.740e-03    3.336e-02  
  6.1000e-02    5.961e-05    9.292e-04   -1.704e-03    3.460e-02  
  6.2000e-02    6.053e-05    9.276e-04   -1.668e-03    3.566e-02  
  6.3000e-02    6.146e-05    9.260e-04   -1.631e-03    3.652e-02  
  6.4000e-02    6.238e-05    9.244e-04   -1.593e-03    3.723e-02  
  6.5000e-02    6.330e-05    9.229e-04   -1.555e-03    3.765e-02  
  6.6000e-02    6.422e-05    9.214e-04   -1.517e-03    3.806e-02  
  6.7000e-02    6.514e-05    9.200e-04   -1.478e-03    3.833e-02  
  6.8000e-02    6.606e-05    9.186e-04   -1.440e-03    3.833e-02  
  6.9000e-02    6.697e-05    9.172e-04   -1.401e-03    3.842e-02  
  7.0000e-02    6.789e-05    9.159e-04   -1.363e-03    3.830e-02  
  7.1000e-02    6.880e-05    9.146e-04   -1.325e-03    3.817e-02  
  7.2000e-02    6.971e-05    9.134e-04   -1.288e-03    3.782e-02  
  7.3000e-02    7.062e-05    9.122e-04   -1.250e-03    3.777e-02  
  7.4000e-02    7.153e-05    9.110e-04   -1.213e-03    3.728e-02  
  7.5000e-02    7.244e-05    9.098e-04   -1.177e-03    3.705e-02  
  7.6000e-02    7.335e-05    9.087e-04   -1.140e-03    3.664e-02  
  7.7000e-02    7.426e-05    9.077e-04   -1.105e-03    3.632e-02  
  7.8000e-02    7.516e-05    9.066e-04   -1.069e-03    3.591e-02  
  7.9000e-02    7.607e-05    9.056e-04   -1.034e-03    3.554e-02  
  8.0000e-02    7.697e-05    9.047e-04   -9.989e-04    3.526e-02  
  8.1000e-02    7.787e-05    9.037e-04   -9.644e-04    3.482e-02  
  8.2000e-02    7.878e-05    9.028e-04   -9.303e-04    3.449e-02  
  8.3000e-02    7.968e-05    9.020e-04   -8.964e-04    3.413e-02  
  8.4000e-02    8.058e-05    9.012e-04   -8.629e-04    3.389e-02  
  8.5000e-02    8.148e-05    9.004e-04   -8.297e-04    3.347e-02  
  8.6000e-02    8.237e-05    8.996e-04   -7.967e-04    3.324e-02  
  8.7000e-02    8.327e-05    8.989e-04   -7.641e-04    3.293e-02  
  8.8000e-02    8.417e-05    8.982e-04   -7.318e-04    3.264e-02  
  8.9000e-02    8.507e-05    8.975e-04   -6.996e-04    3.233e-02  
  9.0000e-02    8.596e-05    8.969e-04   -6.678e-04    3.217e-02  
  9.1000e-02    8.686e-05    8.963e-04   -6.362e-04    3.179e-02  
  9.2000e-02    8.775e-05    8.957e-04   -6.049e-04    3.156e-02  
  9.3000e-02    8.865e-05    8.951e-04   -5.738e-04    3.135e-02  
  9.4000e-02    8.954e-05    8.946e-04   -5.430e-04    3.105e-02  
  9.5000e-02    9.044e-05    8.941e-04   -5.125e-04    3.084e-02  
  9.6000e-02    9.133e-05    8.937e-04   -4.822e-04    3.048e-02  
  9.7000e-02    9.222e-05    8.933e-04   -4.522e-04    3.031e-02  
  9.8000e-02    9.312e-05    8.929e-04   -4.225e-04    3.004e-02  
  9.9000e-02    9.401e-05    8.925e-04   -3.930e-04    2.963e-02  
    0.10000     9.490e-05    8.922e-04   -3.639e-04    2.952e-02  
y
x

        volt    param      
                    gx4    
   -0.10000      -0.1170   
 -9.9000e-02    -42.0239   
 -9.8000e-02   -5.394e+03  
 -9.7000e-02   -3.569e+05  
 -9.6000e-02   -1.066e+08  
 -9.5000e-02    3.226e+08  
 -9.4000e-02   -3.240e+08  
 -9.3000e-02    1.083e+08  
 -9.2000e-02      0.2842   
 -9.1000e-02      0.2984   
 -9.0000e-02      0.3553   
 -8.9000e-02      0.1847   
 -8.8000e-02      0.3837   
 -8.7000e-02      0.1563   
 -8.6000e-02      0.4121   
 -8.5000e-02    9.948e-02  
 -8.4000e-02      0.4121   
 -8.3000e-02    9.948e-02  
 -8.2000e-02      0.4405   
 -8.1000e-02    9.948e-02  
 -8.0000e-02      0.3268   
 -7.9000e-02      0.2842   
 -7.8000e-02      0.2558   
 -7.7000e-02      0.2416   
 -7.6000e-02      0.4121   
 -7.5000e-02      0.1279   
 -7.4000e-02      0.4547   
 -7.3000e-02      0.3411   
 -7.2000e-02      0.1705   
 -7.1000e-02      0.5116   
 -7.0000e-02      0.2842   
 -6.9000e-02      0.3695   
 -6.8000e-02      0.3979   
 -6.7000e-02      0.2842   
 -6.6000e-02      0.5116   
 -6.5000e-02      0.2416   
 -6.4000e-02      0.2700   
 -6.3000e-02      0.5116   
 -6.2000e-02    7.105e-02  
 -6.1000e-02      0.3126   
 -6.0000e-02      0.1563   
 -5.9000e-02    6.395e-02  
 -5.8000e-02    7.105e-03  
 -5.7000e-02     -0.1066   
 -5.6000e-02     -0.1918   
 -5.5000e-02     -0.4263   
 -5.4000e-02     -0.4263   
 -5.3000e-02     -0.7532   
 -5.2000e-02     -0.7745   
 -5.1000e-02     -1.1084   
 -5.0000e-02     -1.2719   
 -4.9000e-02     -1.4495   
 -4.8000e-02     -1.7835   
 -4.7000e-02     -1.8900   
 -4.6000e-02     -2.2737   
 -4.5000e-02     -2.4585   
 -4.4000e-02     -2.7143   
 -4.3000e-02     -2.9559   
 -4.2000e-02     -3.2401   
 -4.1000e-02     -3.4177   
 -4.0000e-02     -3.6593   
 -3.9000e-02     -3.9080   
 -3.8000e-02     -4.0004   
 -3.7000e-02     -4.2064   
 -3.6000e-02     -4.3343   
 -3.5000e-02     -4.4906   
 -3.4000e-02     -4.4125   
 -3.3000e-02     -4.5901   
 -3.2000e-02     -4.5048   
 -3.1000e-02     -4.5901   
 -3.0000e-02     -4.2988   
 -2.9000e-02     -4.3983   
 -2.8000e-02     -4.1425   
 -2.7000e-02     -3.9790   
 -2.6000e-02     -3.7801   
 -2.5000e-02     -3.4532   
 -2.4000e-02     -3.2792   
 -2.3000e-02     -2.8706   
 -2.2000e-02     -2.5757   
 -2.1000e-02     -2.2133   
 -2.0000e-02     -1.8083   
 -1.9000e-02     -1.4211   
 -1.8000e-02     -1.0409   
 -1.7000e-02     -0.5755   
 -1.6000e-02     -0.1883   
 -1.5000e-02      0.2416   
 -1.4000e-02      0.6395   
 -1.3000e-02      1.0658   
 -1.2000e-02      1.4069   
 -1.1000e-02      1.8527   
 -1.0000e-02      2.1174   
 -9.0000e-03      2.4745   
 -8.0000e-03      2.7427   
 -7.0000e-03      2.9843   
 -6.0000e-03      3.1815   
 -5.0000e-03      3.3253   
 -4.0000e-03      3.4310   
 -3.0000e-03      3.4515   
 -2.0000e-03      3.4150   
 -1.0000e-03      3.3289   
    0.            3.1246   
  1.0000e-03      2.8657   
  2.0000e-03      2.5031   
  3.0000e-03      2.0440   
  4.0000e-03      1.4695   
  5.0000e-03      0.7900   
  6.0000e-03   -6.776e-04  
  7.0000e-03     -0.7887   
  8.0000e-03     -1.4699   
  9.0000e-03     -2.0456   
  1.0000e-02     -2.4996   
  1.1000e-02     -2.8719   
  1.2000e-02     -3.1162   
  1.3000e-02     -3.3351   
  1.4000e-02     -3.4097   
  1.5000e-02     -3.4674   
  1.6000e-02     -3.4008   
  1.7000e-02     -3.3555   
  1.8000e-02     -3.1672   
  1.9000e-02     -2.9807   
  2.0000e-02     -2.7569   
  2.1000e-02     -2.4496   
  2.2000e-02     -2.1547   
  2.3000e-02     -1.8208   
  2.4000e-02     -1.4104   
  2.5000e-02     -1.0871   
  2.6000e-02     -0.6111   
  2.7000e-02     -0.2665   
  2.8000e-02      0.1990   
  2.9000e-02      0.5826   
  3.0000e-02      1.0409   
  3.1000e-02      1.3820   
  3.2000e-02      1.8687   
  3.3000e-02      2.1849   
  3.4000e-02      2.5651   
  3.5000e-02      2.8884   
  3.6000e-02      3.2685   
  3.7000e-02      3.4461   
  3.8000e-02      3.8085   
  3.9000e-02      3.9542   
  4.0000e-02      4.1567   
  4.1000e-02      4.3698   
  4.2000e-02      4.3414   
  4.3000e-02      4.5546   
  4.4000e-02      4.5546   
  4.5000e-02      4.4977   
  4.6000e-02      4.5048   
  4.7000e-02      4.4409   
  4.8000e-02      4.3698   
  4.9000e-02      4.1567   
  5.0000e-02      4.0572   
  5.1000e-02      3.8582   
  5.2000e-02      3.6877   
  5.3000e-02      3.4106   
  5.4000e-02      3.2401   
  5.5000e-02      2.9488   
  5.6000e-02      2.7356   
  5.7000e-02      2.4514   
  5.8000e-02      2.2240   
  5.9000e-02      1.9824   
  6.0000e-02      1.6911   
  6.1000e-02      1.5277   
  6.2000e-02      1.2363   
  6.3000e-02      1.0658   
  6.4000e-02      0.8598   
  6.5000e-02      0.7034   
  6.6000e-02      0.4263   
  6.7000e-02      0.4121   
  6.8000e-02      0.2629   
  6.9000e-02      0.       
  7.0000e-02    9.237e-02  
  7.1000e-02     -0.1208   
  7.2000e-02     -0.1279   
  7.3000e-02     -0.3553   
  7.4000e-02   -4.263e-02  
  7.5000e-02     -0.4974   
  7.6000e-02     -0.2274   
  7.7000e-02     -0.4121   
  7.8000e-02     -0.3126   
  7.9000e-02     -0.4121   
  8.0000e-02     -0.3695   
  8.1000e-02     -0.2842   
  8.2000e-02     -0.4405   
  8.3000e-02     -0.3268   
  8.4000e-02     -0.3553   
  8.5000e-02     -0.2416   
  8.6000e-02     -0.4263   
  8.7000e-02     -0.2274   
  8.8000e-02     -0.3126   
  8.9000e-02     -0.2842   
  9.0000e-02     -0.3126   
  9.1000e-02     -0.1563   
  9.2000e-02     -0.3837   
  9.3000e-02     -0.2274   
  9.4000e-02     -0.2132   
  9.5000e-02     -0.2984   
  9.6000e-02     -0.2132   
  9.7000e-02     -0.3553   
  9.8000e-02     -0.1705   
  9.9000e-02     -0.2700   
    0.10000      -0.4121   
y
-----------------------------------------------
 ******  
 *sample netlist for bsim-mg

  ******  dc transfer curves tnom=  25.000 temp=  25.000 *****

   *** source        0:vgate =    0.6000        ***

x

        volt    param        param        param        param      
                    ids          gx           gx2          gx3    
   -0.10000    -1.864e-04   -9.490e-04   -8.922e-03    3.639e-03  
 -9.9000e-02   -1.848e-04     -0.2813      -1.8412      -8.5579   
 -9.8000e-02   -1.832e-04    1.624e-03   -280.3765    -1.832e+03  
 -9.7000e-02   -1.815e-04    1.629e-03    282.9492    -2.785e+05  
 -9.6000e-02   -1.799e-04    1.634e-03    5.167e-03    5.633e+05  
 -9.5000e-02   -1.783e-04    1.639e-03    5.198e-03   -2.829e+05  
 -9.4000e-02   -1.766e-04    1.645e-03    5.228e-03    3.105e-02  
 -9.3000e-02   -1.750e-04    1.650e-03    5.258e-03    3.034e-02  
 -9.2000e-02   -1.733e-04    1.655e-03    5.286e-03    2.952e-02  
 -9.1000e-02   -1.716e-04    1.661e-03    5.314e-03    2.871e-02  
 -9.0000e-02   -1.700e-04    1.666e-03    5.341e-03    2.767e-02  
 -8.9000e-02   -1.683e-04    1.671e-03    5.366e-03    2.676e-02  
 -8.8000e-02   -1.666e-04    1.677e-03    5.391e-03    2.565e-02  
 -8.7000e-02   -1.649e-04    1.682e-03    5.414e-03    2.454e-02  
 -8.6000e-02   -1.632e-04    1.688e-03    5.436e-03    2.342e-02  
 -8.5000e-02   -1.615e-04    1.693e-03    5.457e-03    2.214e-02  
 -8.4000e-02   -1.598e-04    1.699e-03    5.477e-03    2.085e-02  
 -8.3000e-02   -1.581e-04    1.704e-03    5.495e-03    1.938e-02  
 -8.2000e-02   -1.564e-04    1.710e-03    5.511e-03    1.815e-02  
 -8.1000e-02   -1.547e-04    1.715e-03    5.526e-03    1.640e-02  
 -8.0000e-02   -1.529e-04    1.721e-03    5.540e-03    1.508e-02  
 -7.9000e-02   -1.512e-04    1.726e-03    5.551e-03    1.322e-02  
 -7.8000e-02   -1.495e-04    1.732e-03    5.561e-03    1.170e-02  
 -7.7000e-02   -1.477e-04    1.737e-03    5.569e-03    9.877e-03  
 -7.6000e-02   -1.460e-04    1.743e-03    5.575e-03    8.043e-03  
 -7.5000e-02   -1.442e-04    1.749e-03    5.580e-03    6.153e-03  
 -7.4000e-02   -1.425e-04    1.754e-03    5.582e-03    4.263e-03  
 -7.3000e-02   -1.407e-04    1.760e-03    5.582e-03    2.188e-03  
 -7.2000e-02   -1.389e-04    1.765e-03    5.580e-03    2.274e-04  
 -7.1000e-02   -1.372e-04    1.771e-03    5.576e-03   -1.947e-03  
 -7.0000e-02   -1.354e-04    1.776e-03    5.570e-03   -4.164e-03  
 -6.9000e-02   -1.336e-04    1.782e-03    5.561e-03   -6.253e-03  
 -6.8000e-02   -1.318e-04    1.788e-03    5.550e-03   -8.612e-03  
 -6.7000e-02   -1.300e-04    1.793e-03    5.537e-03   -1.086e-02  
 -6.6000e-02   -1.282e-04    1.799e-03    5.521e-03   -1.323e-02  
 -6.5000e-02   -1.264e-04    1.804e-03    5.503e-03   -1.566e-02  
 -6.4000e-02   -1.246e-04    1.809e-03    5.483e-03   -1.802e-02  
 -6.3000e-02   -1.227e-04    1.815e-03    5.460e-03   -2.052e-02  
 -6.2000e-02   -1.209e-04    1.820e-03    5.434e-03   -2.295e-02  
 -6.1000e-02   -1.191e-04    1.826e-03    5.406e-03   -2.554e-02  
 -6.0000e-02   -1.172e-04    1.831e-03    5.376e-03   -2.803e-02  
 -5.9000e-02   -1.154e-04    1.836e-03    5.342e-03   -3.055e-02  
 -5.8000e-02   -1.136e-04    1.842e-03    5.307e-03   -3.321e-02  
 -5.7000e-02   -1.117e-04    1.847e-03    5.268e-03   -3.568e-02  
 -5.6000e-02   -1.099e-04    1.852e-03    5.228e-03   -3.836e-02  
 -5.5000e-02   -1.080e-04    1.857e-03    5.184e-03   -4.088e-02  
 -5.4000e-02   -1.061e-04    1.862e-03    5.138e-03   -4.348e-02  
 -5.3000e-02   -1.042e-04    1.867e-03    5.089e-03   -4.603e-02  
 -5.2000e-02   -1.024e-04    1.872e-03    5.038e-03   -4.864e-02  
 -5.1000e-02   -1.005e-04    1.877e-03    4.985e-03   -5.114e-02  
 -5.0000e-02   -9.860e-05    1.882e-03    4.928e-03   -5.369e-02  
 -4.9000e-02   -9.671e-05    1.887e-03    4.870e-03   -5.623e-02  
 -4.8000e-02   -9.481e-05    1.892e-03    4.809e-03   -5.864e-02  
 -4.7000e-02   -9.291e-05    1.896e-03    4.745e-03   -6.111e-02  
 -4.6000e-02   -9.101e-05    1.901e-03    4.679e-03   -6.355e-02  
 -4.5000e-02   -8.910e-05    1.905e-03    4.611e-03   -6.588e-02  
 -4.4000e-02   -8.718e-05    1.910e-03    4.540e-03   -6.820e-02  
 -4.3000e-02   -8.527e-05    1.914e-03    4.468e-03   -7.051e-02  
 -4.2000e-02   -8.334e-05    1.919e-03    4.393e-03   -7.267e-02  
 -4.1000e-02   -8.142e-05    1.923e-03    4.316e-03   -7.493e-02  
 -4.0000e-02   -7.948e-05    1.927e-03    4.237e-03   -7.694e-02  
 -3.9000e-02   -7.755e-05    1.931e-03    4.156e-03   -7.906e-02  
 -3.8000e-02   -7.561e-05    1.935e-03    4.073e-03   -8.096e-02  
 -3.7000e-02   -7.367e-05    1.939e-03    3.988e-03   -8.295e-02  
 -3.6000e-02   -7.172e-05    1.943e-03    3.902e-03   -8.475e-02  
 -3.5000e-02   -6.977e-05    1.947e-03    3.813e-03   -8.650e-02  
 -3.4000e-02   -6.782e-05    1.950e-03    3.724e-03   -8.818e-02  
 -3.3000e-02   -6.586e-05    1.954e-03    3.632e-03   -8.983e-02  
 -3.2000e-02   -6.390e-05    1.957e-03    3.540e-03   -9.132e-02  
 -3.1000e-02   -6.194e-05    1.960e-03    3.445e-03   -9.273e-02  
 -3.0000e-02   -5.997e-05    1.964e-03    3.350e-03   -9.415e-02  
 -2.9000e-02   -5.800e-05    1.967e-03    3.253e-03   -9.537e-02  
 -2.8000e-02   -5.603e-05    1.970e-03    3.156e-03   -9.657e-02  
 -2.7000e-02   -5.405e-05    1.973e-03    3.057e-03   -9.765e-02  
 -2.6000e-02   -5.207e-05    1.976e-03    2.958e-03   -9.866e-02  
 -2.5000e-02   -5.009e-05    1.979e-03    2.857e-03   -9.957e-02  
 -2.4000e-02   -4.811e-05    1.981e-03    2.756e-03     -0.1004   
 -2.3000e-02   -4.612e-05    1.984e-03    2.654e-03     -0.1011   
 -2.2000e-02   -4.413e-05    1.986e-03    2.552e-03     -0.1018   
 -2.1000e-02   -4.214e-05    1.989e-03    2.449e-03     -0.1023   
 -2.0000e-02   -4.015e-05    1.991e-03    2.346e-03     -0.1028   
 -1.9000e-02   -3.815e-05    1.993e-03    2.242e-03     -0.1032   
 -1.8000e-02   -3.616e-05    1.995e-03    2.139e-03     -0.1035   
 -1.7000e-02   -3.416e-05    1.997e-03    2.035e-03     -0.1037   
 -1.6000e-02   -3.216e-05    1.999e-03    1.931e-03     -0.1039   
 -1.5000e-02   -3.016e-05    2.000e-03    1.827e-03     -0.1039   
 -1.4000e-02   -2.815e-05    2.002e-03    1.723e-03     -0.1040   
 -1.3000e-02   -2.615e-05    2.004e-03    1.619e-03     -0.1039   
 -1.2000e-02   -2.414e-05    2.005e-03    1.516e-03     -0.1038   
 -1.1000e-02   -2.213e-05    2.006e-03    1.412e-03     -0.1036   
 -1.0000e-02   -2.012e-05    2.007e-03    1.309e-03     -0.1034   
 -9.0000e-03   -1.811e-05    2.009e-03    1.206e-03     -0.1031   
 -8.0000e-03   -1.610e-05    2.010e-03    1.104e-03     -0.1028   
 -7.0000e-03   -1.409e-05    2.011e-03    1.002e-03     -0.1025   
 -6.0000e-03   -1.208e-05    2.011e-03    9.000e-04     -0.1021   
 -5.0000e-03   -1.007e-05    2.012e-03    7.987e-04     -0.1017   
 -4.0000e-03   -8.055e-06    2.013e-03    6.977e-04     -0.1013   
 -3.0000e-03   -6.042e-06    2.013e-03    5.972e-04     -0.1009   
 -2.0000e-03   -4.028e-06    2.013e-03    4.970e-04     -0.1006   
 -1.0000e-03   -2.014e-06    2.014e-03    3.971e-04     -0.1002   
    0.         -5.832e-14    2.014e-03    2.976e-04   -9.986e-02  
  1.0000e-03    2.014e-06    2.014e-03    1.982e-04   -9.957e-02  
  2.0000e-03    4.028e-06    2.014e-03    9.907e-05   -9.933e-02  
  3.0000e-03    6.042e-06    2.014e-03   -4.710e-11   -9.916e-02  
  4.0000e-03    8.055e-06    2.014e-03   -9.907e-05   -9.907e-02  
  5.0000e-03    1.007e-05    2.013e-03   -1.982e-04   -9.907e-02  
  6.0000e-03    1.208e-05    2.013e-03   -2.976e-04   -9.916e-02  
  7.0000e-03    1.409e-05    2.013e-03   -3.971e-04   -9.933e-02  
  8.0000e-03    1.610e-05    2.012e-03   -4.970e-04   -9.956e-02  
  9.0000e-03    1.811e-05    2.011e-03   -5.972e-04   -9.986e-02  
  1.0000e-02    2.012e-05    2.011e-03   -6.977e-04     -0.1002   
  1.1000e-02    2.213e-05    2.010e-03   -7.987e-04     -0.1005   
  1.2000e-02    2.414e-05    2.009e-03   -9.000e-04     -0.1009   
  1.3000e-02    2.615e-05    2.007e-03   -1.002e-03     -0.1013   
  1.4000e-02    2.815e-05    2.006e-03   -1.104e-03     -0.1017   
  1.5000e-02    3.016e-05    2.005e-03   -1.206e-03     -0.1021   
  1.6000e-02    3.216e-05    2.004e-03   -1.309e-03     -0.1025   
  1.7000e-02    3.416e-05    2.002e-03   -1.412e-03     -0.1028   
  1.8000e-02    3.616e-05    2.000e-03   -1.516e-03     -0.1031   
  1.9000e-02    3.815e-05    1.999e-03   -1.619e-03     -0.1034   
  2.0000e-02    4.015e-05    1.997e-03   -1.723e-03     -0.1036   
  2.1000e-02    4.214e-05    1.995e-03   -1.827e-03     -0.1038   
  2.2000e-02    4.413e-05    1.993e-03   -1.931e-03     -0.1039   
  2.3000e-02    4.612e-05    1.991e-03   -2.035e-03     -0.1040   
  2.4000e-02    4.811e-05    1.989e-03   -2.139e-03     -0.1040   
  2.5000e-02    5.009e-05    1.986e-03   -2.242e-03     -0.1039   
  2.6000e-02    5.207e-05    1.984e-03   -2.346e-03     -0.1037   
  2.7000e-02    5.405e-05    1.981e-03   -2.449e-03     -0.1035   
  2.8000e-02    5.603e-05    1.979e-03   -2.552e-03     -0.1032   
  2.9000e-02    5.800e-05    1.976e-03   -2.654e-03     -0.1028   
  3.0000e-02    5.997e-05    1.973e-03   -2.756e-03     -0.1023   
  3.1000e-02    6.194e-05    1.970e-03   -2.857e-03     -0.1018   
  3.2000e-02    6.390e-05    1.967e-03   -2.958e-03     -0.1011   
  3.3000e-02    6.586e-05    1.964e-03   -3.057e-03     -0.1004   
  3.4000e-02    6.782e-05    1.960e-03   -3.156e-03   -9.956e-02  
  3.5000e-02    6.977e-05    1.957e-03   -3.254e-03   -9.866e-02  
  3.6000e-02    7.172e-05    1.954e-03   -3.350e-03   -9.766e-02  
  3.7000e-02    7.367e-05    1.950e-03   -3.445e-03   -9.653e-02  
  3.8000e-02    7.561e-05    1.947e-03   -3.540e-03   -9.542e-02  
  3.9000e-02    7.755e-05    1.943e-03   -3.632e-03   -9.409e-02  
  4.0000e-02    7.948e-05    1.939e-03   -3.724e-03   -9.278e-02  
  4.1000e-02    8.142e-05    1.935e-03   -3.813e-03   -9.134e-02  
  4.2000e-02    8.334e-05    1.931e-03   -3.902e-03   -8.976e-02  
  4.3000e-02    8.527e-05    1.927e-03   -3.988e-03   -8.823e-02  
  4.4000e-02    8.718e-05    1.923e-03   -4.073e-03   -8.650e-02  
  4.5000e-02    8.910e-05    1.919e-03   -4.156e-03   -8.475e-02  
  4.6000e-02    9.101e-05    1.914e-03   -4.237e-03   -8.293e-02  
  4.7000e-02    9.291e-05    1.910e-03   -4.316e-03   -8.099e-02  
  4.8000e-02    9.481e-05    1.905e-03   -4.393e-03   -7.902e-02  
  4.9000e-02    9.671e-05    1.901e-03   -4.468e-03   -7.702e-02  
  5.0000e-02    9.860e-05    1.896e-03   -4.540e-03   -7.483e-02  
  5.1000e-02    1.005e-04    1.892e-03   -4.611e-03   -7.274e-02  
  5.2000e-02    1.024e-04    1.887e-03   -4.679e-03   -7.049e-02  
  5.3000e-02    1.042e-04    1.882e-03   -4.745e-03   -6.819e-02  
  5.4000e-02    1.061e-04    1.877e-03   -4.809e-03   -6.591e-02  
  5.5000e-02    1.080e-04    1.872e-03   -4.870e-03   -6.352e-02  
  5.6000e-02    1.099e-04    1.867e-03   -4.928e-03   -6.115e-02  
  5.7000e-02    1.117e-04    1.862e-03   -4.985e-03   -5.862e-02  
  5.8000e-02    1.136e-04    1.857e-03   -5.038e-03   -5.623e-02  
  5.9000e-02    1.154e-04    1.852e-03   -5.089e-03   -5.369e-02  
  6.0000e-02    1.172e-04    1.847e-03   -5.138e-03   -5.117e-02  
  6.1000e-02    1.191e-04    1.842e-03   -5.184e-03   -4.861e-02  
  6.2000e-02    1.209e-04    1.836e-03   -5.228e-03   -4.607e-02  
  6.3000e-02    1.227e-04    1.831e-03   -5.268e-03   -4.344e-02  
  6.4000e-02    1.246e-04    1.826e-03   -5.307e-03   -4.089e-02  
  6.5000e-02    1.264e-04    1.820e-03   -5.342e-03   -3.838e-02  
  6.6000e-02    1.282e-04    1.815e-03   -5.376e-03   -3.565e-02  
  6.7000e-02    1.300e-04    1.809e-03   -5.406e-03   -3.322e-02  
  6.8000e-02    1.318e-04    1.804e-03   -5.434e-03   -3.054e-02  
  6.9000e-02    1.336e-04    1.799e-03   -5.460e-03   -2.805e-02  
  7.0000e-02    1.354e-04    1.793e-03   -5.483e-03   -2.552e-02  
  7.1000e-02    1.372e-04    1.788e-03   -5.503e-03   -2.299e-02  
  7.2000e-02    1.389e-04    1.782e-03   -5.521e-03   -2.046e-02  
  7.3000e-02    1.407e-04    1.776e-03   -5.537e-03   -1.809e-02  
  7.4000e-02    1.425e-04    1.771e-03   -5.550e-03   -1.559e-02  
  7.5000e-02    1.442e-04    1.765e-03   -5.561e-03   -1.324e-02  
  7.6000e-02    1.460e-04    1.760e-03   -5.570e-03   -1.090e-02  
  7.7000e-02    1.477e-04    1.754e-03   -5.576e-03   -8.527e-03  
  7.8000e-02    1.495e-04    1.749e-03   -5.580e-03   -6.395e-03  
  7.9000e-02    1.512e-04    1.743e-03   -5.582e-03   -4.036e-03  
  8.0000e-02    1.529e-04    1.737e-03   -5.582e-03   -1.947e-03  
  8.1000e-02    1.547e-04    1.732e-03   -5.580e-03    9.948e-05  
  8.2000e-02    1.564e-04    1.726e-03   -5.575e-03    2.345e-03  
  8.3000e-02    1.581e-04    1.721e-03   -5.569e-03    4.135e-03  
  8.4000e-02    1.598e-04    1.715e-03   -5.561e-03    6.239e-03  
  8.5000e-02    1.615e-04    1.710e-03   -5.551e-03    8.043e-03  
  8.6000e-02    1.632e-04    1.704e-03   -5.540e-03    9.820e-03  
  8.7000e-02    1.649e-04    1.699e-03   -5.526e-03    1.168e-02  
  8.8000e-02    1.666e-04    1.693e-03   -5.511e-03    1.336e-02  
  8.9000e-02    1.683e-04    1.688e-03   -5.495e-03    1.486e-02  
  9.0000e-02    1.700e-04    1.682e-03   -5.477e-03    1.661e-02  
  9.1000e-02    1.716e-04    1.677e-03   -5.457e-03    1.801e-02  
  9.2000e-02    1.733e-04    1.671e-03   -5.436e-03    1.941e-02  
  9.3000e-02    1.750e-04    1.666e-03   -5.414e-03    2.089e-02  
  9.4000e-02    1.766e-04    1.661e-03   -5.391e-03    2.213e-02  
  9.5000e-02    1.783e-04    1.655e-03   -5.366e-03    2.336e-02  
  9.6000e-02    1.799e-04    1.650e-03   -5.341e-03    2.456e-02  
  9.7000e-02    1.815e-04    1.645e-03   -5.314e-03    2.572e-02  
  9.8000e-02    1.832e-04    1.639e-03   -5.286e-03    2.672e-02  
  9.9000e-02    1.848e-04    1.634e-03   -5.258e-03    2.767e-02  
    0.10000     1.864e-04    1.629e-03   -5.228e-03    2.872e-02  
y
x

        volt    param      
                    gx4    
   -0.10000      -0.2952   
 -9.9000e-02    -25.8773   
 -9.8000e-02   -8.561e+03  
 -9.7000e-02   -1.823e+06  
 -9.6000e-02   -2.767e+08  
 -9.5000e-02    8.418e+08  
 -9.4000e-02   -8.462e+08  
 -9.3000e-02    2.829e+08  
 -9.2000e-02     -0.7105   
 -9.1000e-02     -0.8242   
 -9.0000e-02     -0.8100   
 -8.9000e-02     -1.0374   
 -8.8000e-02     -0.9095   
 -8.7000e-02     -1.1084   
 -8.6000e-02     -1.1084   
 -8.5000e-02     -1.1227   
 -8.4000e-02     -1.2790   
 -8.3000e-02     -1.2932   
 -8.2000e-02     -1.4637   
 -8.1000e-02     -1.2363   
 -8.0000e-02     -1.7479   
 -7.9000e-02     -1.3216   
 -7.8000e-02     -1.8616   
 -7.7000e-02     -1.5206   
 -7.6000e-02     -1.8190   
 -7.5000e-02     -1.8332   
 -7.4000e-02     -1.8900   
 -7.3000e-02     -1.8900   
 -7.2000e-02     -2.0748   
 -7.1000e-02     -1.9611   
 -7.0000e-02     -2.1743   
 -6.9000e-02     -2.2169   
 -6.8000e-02     -2.0890   
 -6.7000e-02     -2.3590   
 -6.6000e-02     -2.2453   
 -6.5000e-02     -2.3732   
 -6.4000e-02     -2.4301   
 -6.3000e-02     -2.3590   
 -6.2000e-02     -2.5011   
 -6.1000e-02     -2.4301   
 -6.0000e-02     -2.5935   
 -5.9000e-02     -2.4869   
 -5.8000e-02     -2.5224   
 -5.7000e-02     -2.6574   
 -5.6000e-02     -2.4656   
 -5.5000e-02     -2.6787   
 -5.4000e-02     -2.5224   
 -5.3000e-02     -2.6006   
 -5.2000e-02     -2.5508   
 -5.1000e-02     -2.6148   
 -5.0000e-02     -2.5011   
 -4.9000e-02     -2.5437   
 -4.8000e-02     -2.5437   
 -4.7000e-02     -2.4087   
 -4.6000e-02     -2.4656   
 -4.5000e-02     -2.4443   
 -4.4000e-02     -2.3306   
 -4.3000e-02     -2.3235   
 -4.2000e-02     -2.3093   
 -4.1000e-02     -2.1600   
 -4.0000e-02     -2.2524   
 -3.9000e-02     -2.0179   
 -3.8000e-02     -2.1174   
 -3.7000e-02     -1.8971   
 -3.6000e-02     -1.9895   
 -3.5000e-02     -1.8048   
 -3.4000e-02     -1.7479   
 -3.3000e-02     -1.6769   
 -3.2000e-02     -1.6556   
 -3.1000e-02     -1.4850   
 -3.0000e-02     -1.4140   
 -2.9000e-02     -1.4140   
 -2.8000e-02     -1.2257   
 -2.7000e-02     -1.1973   
 -2.6000e-02     -1.0836   
 -2.5000e-02     -1.0019   
 -2.4000e-02     -0.9130   
 -2.3000e-02     -0.8349   
 -2.2000e-02     -0.7105   
 -2.1000e-02     -0.6821   
 -2.0000e-02     -0.5187   
 -1.9000e-02     -0.5009   
 -1.8000e-02     -0.3872   
 -1.7000e-02     -0.2984   
 -1.6000e-02     -0.2309   
 -1.5000e-02     -0.1670   
 -1.4000e-02   -3.908e-02  
 -1.3000e-02   -4.619e-02  
 -1.2000e-02    6.573e-02  
 -1.1000e-02      0.1332   
 -1.0000e-02      0.1599   
 -9.0000e-03      0.2469   
 -8.0000e-03      0.2487   
 -7.0000e-03      0.3144   
 -6.0000e-03      0.3570   
 -5.0000e-03      0.3535   
 -4.0000e-03      0.3917   
 -3.0000e-03      0.3864   
 -2.0000e-03      0.3944   
 -1.0000e-03      0.3810   
    0.            0.3650   
  1.0000e-03      0.3277   
  2.0000e-03      0.2922   
  3.0000e-03      0.2373   
  4.0000e-03      0.1668   
  5.0000e-03    9.228e-02  
  6.0000e-03   -4.138e-04  
  7.0000e-03   -8.947e-02  
  8.0000e-03     -0.1733   
  9.0000e-03     -0.2305   
  1.0000e-02     -0.2949   
  1.1000e-02     -0.3282   
  1.2000e-02     -0.3628   
  1.3000e-02     -0.3917   
  1.4000e-02     -0.3695   
  1.5000e-02     -0.4148   
  1.6000e-02     -0.3721   
  1.7000e-02     -0.3730   
  1.8000e-02     -0.3322   
  1.9000e-02     -0.3268   
  2.0000e-02     -0.2487   
  2.1000e-02     -0.2558   
  2.2000e-02     -0.1492   
  2.3000e-02     -0.1350   
  2.4000e-02   -4.441e-02  
  2.5000e-02   -7.105e-03  
  2.6000e-02    9.237e-02  
  2.7000e-02      0.1315   
  2.8000e-02      0.2522   
  2.9000e-02      0.2949   
  3.0000e-02      0.3837   
  3.1000e-02      0.4938   
  3.2000e-02      0.5294   
  3.3000e-02      0.6786   
  3.4000e-02      0.7105   
  3.5000e-02      0.8384   
  3.6000e-02      0.9024   
  3.7000e-02      0.9983   
  3.8000e-02      1.1298   
  3.9000e-02      1.1191   
  4.0000e-02      1.3252   
  4.1000e-02      1.3074   
  4.2000e-02      1.4424   
  4.3000e-02      1.5845   
  4.4000e-02      1.5277   
  4.5000e-02      1.7266   
  4.6000e-02      1.7479   
  4.7000e-02      1.8261   
  4.8000e-02      1.9398   
  4.9000e-02      1.9682   
  5.0000e-02      1.9966   
  5.1000e-02      2.1885   
  5.2000e-02      2.0961   
  5.3000e-02      2.2453   
  5.4000e-02      2.3022   
  5.5000e-02      2.2808   
  5.6000e-02      2.3945   
  5.7000e-02      2.3661   
  5.8000e-02      2.5295   
  5.9000e-02      2.3945   
  6.0000e-02      2.5366   
  6.1000e-02      2.5224   
  6.2000e-02      2.5580   
  6.3000e-02      2.5366   
  6.4000e-02      2.6290   
  6.5000e-02      2.5508   
  6.6000e-02      2.5153   
  6.7000e-02      2.7285   
  6.8000e-02      2.4301   
  6.9000e-02      2.6787   
  7.0000e-02      2.4869   
  7.1000e-02      2.5295   
  7.2000e-02      2.5295   
  7.3000e-02      2.5295   
  7.4000e-02      2.3732   
  7.5000e-02      2.5011   
  7.6000e-02      2.3448   
  7.7000e-02      2.3448   
  7.8000e-02      2.3732   
  7.9000e-02      2.1316   
  8.0000e-02      2.3590   
  8.1000e-02      2.0890   
  8.2000e-02      2.0464   
  8.3000e-02      2.2453   
  8.4000e-02      1.7906   
  8.5000e-02      2.1032   
  8.6000e-02      1.8048   
  8.7000e-02      1.7764   
  8.8000e-02      1.8616   
[...]
 -8.2000e-02   -2.348e-04    2.704e-03    5.077e-03   -2.684e-02  
 -8.1000e-02   -2.321e-04    2.709e-03    5.048e-03   -2.774e-02  
 -8.0000e-02   -2.294e-04    2.714e-03    5.019e-03   -2.852e-02  
 -7.9000e-02   -2.267e-04    2.719e-03    4.989e-03   -2.929e-02  
 -7.8000e-02   -2.239e-04    2.724e-03    4.958e-03   -3.020e-02  
 -7.7000e-02   -2.212e-04    2.729e-03    4.926e-03   -3.094e-02  
 -7.6000e-02   -2.185e-04    2.734e-03    4.893e-03   -3.172e-02  
 -7.5000e-02   -2.157e-04    2.739e-03    4.860e-03   -3.266e-02  
 -7.4000e-02   -2.130e-04    2.744e-03    4.826e-03   -3.340e-02  
 -7.3000e-02   -2.102e-04    2.748e-03    4.790e-03   -3.422e-02  
 -7.2000e-02   -2.075e-04    2.753e-03    4.755e-03   -3.510e-02  
 -7.1000e-02   -2.047e-04    2.758e-03    4.718e-03   -3.591e-02  
 -7.0000e-02   -2.019e-04    2.763e-03    4.680e-03   -3.668e-02  
 -6.9000e-02   -1.992e-04    2.767e-03    4.642e-03   -3.766e-02  
 -6.8000e-02   -1.964e-04    2.772e-03    4.603e-03   -3.837e-02  
 -6.7000e-02   -1.936e-04    2.776e-03    4.563e-03   -3.922e-02  
 -6.6000e-02   -1.908e-04    2.781e-03    4.522e-03   -4.012e-02  
 -6.5000e-02   -1.880e-04    2.785e-03    4.480e-03   -4.088e-02  
 -6.4000e-02   -1.852e-04    2.790e-03    4.437e-03   -4.181e-02  
 -6.3000e-02   -1.824e-04    2.794e-03    4.394e-03   -4.253e-02  
 -6.2000e-02   -1.796e-04    2.798e-03    4.350e-03   -4.347e-02  
 -6.1000e-02   -1.768e-04    2.802e-03    4.304e-03   -4.425e-02  
 -6.0000e-02   -1.740e-04    2.807e-03    4.259e-03   -4.511e-02  
 -5.9000e-02   -1.712e-04    2.811e-03    4.212e-03   -4.595e-02  
 -5.8000e-02   -1.684e-04    2.815e-03    4.164e-03   -4.678e-02  
 -5.7000e-02   -1.656e-04    2.819e-03    4.116e-03   -4.756e-02  
 -5.6000e-02   -1.627e-04    2.823e-03    4.066e-03   -4.850e-02  
 -5.5000e-02   -1.599e-04    2.827e-03    4.016e-03   -4.920e-02  
 -5.4000e-02   -1.571e-04    2.831e-03    3.965e-03   -5.009e-02  
 -5.3000e-02   -1.542e-04    2.835e-03    3.914e-03   -5.092e-02  
 -5.2000e-02   -1.514e-04    2.839e-03    3.861e-03   -5.168e-02  
 -5.1000e-02   -1.485e-04    2.842e-03    3.808e-03   -5.256e-02  
 -5.0000e-02   -1.457e-04    2.846e-03    3.754e-03   -5.333e-02  
 -4.9000e-02   -1.428e-04    2.850e-03    3.699e-03   -5.411e-02  
 -4.8000e-02   -1.400e-04    2.853e-03    3.643e-03   -5.495e-02  
 -4.7000e-02   -1.371e-04    2.857e-03    3.587e-03   -5.572e-02  
 -4.6000e-02   -1.343e-04    2.860e-03    3.529e-03   -5.651e-02  
 -4.5000e-02   -1.314e-04    2.864e-03    3.471e-03   -5.728e-02  
 -4.4000e-02   -1.285e-04    2.867e-03    3.412e-03   -5.809e-02  
 -4.3000e-02   -1.256e-04    2.870e-03    3.353e-03   -5.878e-02  
 -4.2000e-02   -1.228e-04    2.874e-03    3.293e-03   -5.963e-02  
 -4.1000e-02   -1.199e-04    2.877e-03    3.231e-03   -6.030e-02  
 -4.0000e-02   -1.170e-04    2.880e-03    3.170e-03   -6.109e-02  
 -3.9000e-02   -1.141e-04    2.883e-03    3.107e-03   -6.180e-02  
 -3.8000e-02   -1.112e-04    2.886e-03    3.044e-03   -6.255e-02  
 -3.7000e-02   -1.083e-04    2.889e-03    2.980e-03   -6.324e-02  
 -3.6000e-02   -1.054e-04    2.892e-03    2.915e-03   -6.398e-02  
 -3.5000e-02   -1.026e-04    2.894e-03    2.850e-03   -6.461e-02  
 -3.4000e-02   -9.965e-05    2.897e-03    2.784e-03   -6.541e-02  
 -3.3000e-02   -9.675e-05    2.900e-03    2.717e-03   -6.595e-02  
 -3.2000e-02   -9.384e-05    2.902e-03    2.650e-03   -6.672e-02  
 -3.1000e-02   -9.094e-05    2.905e-03    2.582e-03   -6.733e-02  
 -3.0000e-02   -8.803e-05    2.907e-03    2.513e-03   -6.797e-02  
 -2.9000e-02   -8.511e-05    2.910e-03    2.444e-03   -6.858e-02  
 -2.8000e-02   -8.220e-05    2.912e-03    2.374e-03   -6.926e-02  
 -2.7000e-02   -7.928e-05    2.914e-03    2.304e-03   -6.980e-02  
 -2.6000e-02   -7.637e-05    2.916e-03    2.233e-03   -7.040e-02  
 -2.5000e-02   -7.345e-05    2.918e-03    2.161e-03   -7.101e-02  
 -2.4000e-02   -7.052e-05    2.920e-03    2.089e-03   -7.154e-02  
 -2.3000e-02   -6.760e-05    2.922e-03    2.017e-03   -7.210e-02  
 -2.2000e-02   -6.467e-05    2.924e-03    1.943e-03   -7.262e-02  
 -2.1000e-02   -6.174e-05    2.926e-03    1.870e-03   -7.316e-02  
 -2.0000e-02   -5.882e-05    2.928e-03    1.796e-03   -7.363e-02  
 -1.9000e-02   -5.588e-05    2.929e-03    1.721e-03   -7.414e-02  
 -1.8000e-02   -5.295e-05    2.931e-03    1.646e-03   -7.460e-02  
 -1.7000e-02   -5.002e-05    2.932e-03    1.570e-03   -7.506e-02  
 -1.6000e-02   -4.708e-05    2.934e-03    1.495e-03   -7.548e-02  
 -1.5000e-02   -4.415e-05    2.935e-03    1.418e-03   -7.590e-02  
 -1.4000e-02   -4.121e-05    2.937e-03    1.342e-03   -7.630e-02  
 -1.3000e-02   -3.827e-05    2.938e-03    1.265e-03   -7.669e-02  
 -1.2000e-02   -3.533e-05    2.939e-03    1.187e-03   -7.703e-02  
 -1.1000e-02   -3.239e-05    2.940e-03    1.109e-03   -7.738e-02  
 -1.0000e-02   -2.945e-05    2.941e-03    1.031e-03   -7.769e-02  
 -9.0000e-03   -2.650e-05    2.942e-03    9.532e-04   -7.800e-02  
 -8.0000e-03   -2.356e-05    2.942e-03    8.747e-04   -7.828e-02  
 -7.0000e-03   -2.062e-05    2.943e-03    7.959e-04   -7.853e-02  
 -6.0000e-03   -1.767e-05    2.944e-03    7.169e-04   -7.877e-02  
 -5.0000e-03   -1.473e-05    2.944e-03    6.378e-04   -7.898e-02  
 -4.0000e-03   -1.178e-05    2.945e-03    5.584e-04   -7.918e-02  
 -3.0000e-03   -8.838e-06    2.945e-03    4.789e-04   -7.935e-02  
 -2.0000e-03   -5.892e-06    2.946e-03    3.993e-04   -7.950e-02  
 -1.0000e-03   -2.946e-06    2.946e-03    3.196e-04   -7.963e-02  
    0.         -8.481e-13    2.946e-03    2.397e-04   -7.973e-02  
  1.0000e-03    2.946e-06    2.946e-03    1.599e-04   -7.981e-02  
  2.0000e-03    5.892e-06    2.946e-03    7.994e-05   -7.988e-02  
  3.0000e-03    8.838e-06    2.946e-03   -1.541e-10   -7.992e-02  
  4.0000e-03    1.178e-05    2.946e-03   -7.994e-05   -7.994e-02  
  5.0000e-03    1.473e-05    2.946e-03   -1.599e-04   -7.994e-02  
  6.0000e-03    1.767e-05    2.945e-03   -2.397e-04   -7.992e-02  
  7.0000e-03    2.062e-05    2.945e-03   -3.195e-04   -7.988e-02  
  8.0000e-03    2.356e-05    2.944e-03   -3.993e-04   -7.981e-02  
  9.0000e-03    2.650e-05    2.944e-03   -4.789e-04   -7.973e-02  
  1.0000e-02    2.945e-05    2.943e-03   -5.584e-04   -7.963e-02  
  1.1000e-02    3.239e-05    2.942e-03   -6.378e-04   -7.950e-02  
  1.2000e-02    3.533e-05    2.942e-03   -7.169e-04   -7.934e-02  
  1.3000e-02    3.827e-05    2.941e-03   -7.959e-04   -7.919e-02  
  1.4000e-02    4.121e-05    2.940e-03   -8.747e-04   -7.898e-02  
  1.5000e-02    4.415e-05    2.939e-03   -9.532e-04   -7.877e-02  
  1.6000e-02    4.708e-05    2.938e-03   -1.031e-03   -7.854e-02  
  1.7000e-02    5.002e-05    2.937e-03   -1.109e-03   -7.827e-02  
  1.8000e-02    5.295e-05    2.935e-03   -1.187e-03   -7.800e-02  
  1.9000e-02    5.588e-05    2.934e-03   -1.265e-03   -7.771e-02  
  2.0000e-02    5.882e-05    2.932e-03   -1.342e-03   -7.736e-02  
  2.1000e-02    6.174e-05    2.931e-03   -1.418e-03   -7.705e-02  
  2.2000e-02    6.467e-05    2.929e-03   -1.495e-03   -7.667e-02  
  2.3000e-02    6.760e-05    2.928e-03   -1.570e-03   -7.631e-02  
  2.4000e-02    7.052e-05    2.926e-03   -1.646e-03   -7.589e-02  
  2.5000e-02    7.345e-05    2.924e-03   -1.721e-03   -7.550e-02  
  2.6000e-02    7.637e-05    2.922e-03   -1.796e-03   -7.505e-02  
  2.7000e-02    7.928e-05    2.920e-03   -1.870e-03   -7.460e-02  
  2.8000e-02    8.220e-05    2.918e-03   -1.943e-03   -7.413e-02  
  2.9000e-02    8.511e-05    2.916e-03   -2.017e-03   -7.366e-02  
  3.0000e-02    8.803e-05    2.914e-03   -2.089e-03   -7.314e-02  
  3.1000e-02    9.094e-05    2.912e-03   -2.161e-03   -7.262e-02  
  3.2000e-02    9.384e-05    2.910e-03   -2.233e-03   -7.211e-02  
  3.3000e-02    9.675e-05    2.907e-03   -2.304e-03   -7.153e-02  
  3.4000e-02    9.965e-05    2.905e-03   -2.374e-03   -7.100e-02  
  3.5000e-02    1.026e-04    2.902e-03   -2.444e-03   -7.041e-02  
  3.6000e-02    1.054e-04    2.900e-03   -2.513e-03   -6.982e-02  
  3.7000e-02    1.083e-04    2.897e-03   -2.582e-03   -6.921e-02  
  3.8000e-02    1.112e-04    2.894e-03   -2.650e-03   -6.860e-02  
  3.9000e-02    1.141e-04    2.892e-03   -2.717e-03   -6.798e-02  
  4.0000e-02    1.170e-04    2.889e-03   -2.784e-03   -6.735e-02  
  4.1000e-02    1.199e-04    2.886e-03   -2.850e-03   -6.666e-02  
  4.2000e-02    1.228e-04    2.883e-03   -2.915e-03   -6.601e-02  
  4.3000e-02    1.256e-04    2.880e-03   -2.980e-03   -6.537e-02  
  4.4000e-02    1.285e-04    2.877e-03   -3.044e-03   -6.464e-02  
  4.5000e-02    1.314e-04    2.874e-03   -3.107e-03   -6.396e-02  
  4.6000e-02    1.343e-04    2.870e-03   -3.170e-03   -6.324e-02  
  4.7000e-02    1.371e-04    2.867e-03   -3.231e-03   -6.256e-02  
  4.8000e-02    1.400e-04    2.864e-03   -3.293e-03   -6.179e-02  
  4.9000e-02    1.428e-04    2.860e-03   -3.353e-03   -6.111e-02  
  5.0000e-02    1.457e-04    2.857e-03   -3.412e-03   -6.029e-02  
  5.1000e-02    1.485e-04    2.853e-03   -3.471e-03   -5.961e-02  
  5.2000e-02    1.514e-04    2.850e-03   -3.529e-03   -5.884e-02  
  5.3000e-02    1.542e-04    2.846e-03   -3.587e-03   -5.804e-02  
  5.4000e-02    1.571e-04    2.842e-03   -3.643e-03   -5.729e-02  
  5.5000e-02    1.599e-04    2.839e-03   -3.699e-03   -5.653e-02  
  5.6000e-02    1.627e-04    2.835e-03   -3.754e-03   -5.569e-02  
  5.7000e-02    1.656e-04    2.831e-03   -3.808e-03   -5.496e-02  
  5.8000e-02    1.684e-04    2.827e-03   -3.861e-03   -5.412e-02  
  5.9000e-02    1.712e-04    2.823e-03   -3.914e-03   -5.333e-02  
  6.0000e-02    1.740e-04    2.819e-03   -3.965e-03   -5.255e-02  
  6.1000e-02    1.768e-04    2.815e-03   -4.016e-03   -5.168e-02  
  6.2000e-02    1.796e-04    2.811e-03   -4.066e-03   -5.093e-02  
  6.3000e-02    1.824e-04    2.807e-03   -4.116e-03   -5.006e-02  
  6.4000e-02    1.852e-04    2.802e-03   -4.164e-03   -4.925e-02  
  6.5000e-02    1.880e-04    2.798e-03   -4.212e-03   -4.844e-02  
  6.6000e-02    1.908e-04    2.794e-03   -4.259e-03   -4.761e-02  
  6.7000e-02    1.936e-04    2.790e-03   -4.304e-03   -4.678e-02  
  6.8000e-02    1.964e-04    2.785e-03   -4.350e-03   -4.592e-02  
  6.9000e-02    1.992e-04    2.781e-03   -4.394e-03   -4.509e-02  
  7.0000e-02    2.019e-04    2.776e-03   -4.437e-03   -4.433e-02  
  7.1000e-02    2.047e-04    2.772e-03   -4.480e-03   -4.340e-02  
  7.2000e-02    2.075e-04    2.767e-03   -4.522e-03   -4.256e-02  
  7.3000e-02    2.102e-04    2.763e-03   -4.563e-03   -4.184e-02  
  7.4000e-02    2.130e-04    2.758e-03   -4.603e-03   -4.084e-02  
  7.5000e-02    2.157e-04    2.753e-03   -4.642e-03   -4.010e-02  
  7.6000e-02    2.185e-04    2.748e-03   -4.680e-03   -3.929e-02  
  7.7000e-02    2.212e-04    2.744e-03   -4.718e-03   -3.833e-02  
  7.8000e-02    2.239e-04    2.739e-03   -4.755e-03   -3.764e-02  
  7.9000e-02    2.267e-04    2.734e-03   -4.790e-03   -3.671e-02  
  8.0000e-02    2.294e-04    2.729e-03   -4.826e-03   -3.588e-02  
  8.1000e-02    2.321e-04    2.724e-03   -4.860e-03   -3.512e-02  
  8.2000e-02    2.348e-04    2.719e-03   -4.893e-03   -3.419e-02  
  8.3000e-02    2.375e-04    2.714e-03   -4.926e-03   -3.349e-02  
  8.4000e-02    2.402e-04    2.709e-03   -4.958e-03   -3.251e-02  
  8.5000e-02    2.429e-04    2.704e-03   -4.989e-03   -3.180e-02  
  8.6000e-02    2.456e-04    2.699e-03   -5.019e-03   -3.097e-02  
  8.7000e-02    2.483e-04    2.694e-03   -5.048e-03   -3.010e-02  
  8.8000e-02    2.510e-04    2.689e-03   -5.076e-03   -2.940e-02  
  8.9000e-02    2.537e-04    2.684e-03   -5.104e-03   -2.842e-02  
  9.0000e-02    2.564e-04    2.679e-03   -5.131e-03   -2.780e-02  
  9.1000e-02    2.590e-04    2.674e-03   -5.157e-03   -2.686e-02  
  9.2000e-02    2.617e-04    2.669e-03   -5.183e-03   -2.615e-02  
  9.3000e-02    2.643e-04    2.663e-03   -5.207e-03   -2.531e-02  
  9.4000e-02    2.670e-04    2.658e-03   -5.231e-03   -2.450e-02  
  9.5000e-02    2.696e-04    2.653e-03   -5.254e-03   -2.382e-02  
  9.6000e-02    2.723e-04    2.647e-03   -5.276e-03   -2.299e-02  
  9.7000e-02    2.749e-04    2.642e-03   -5.298e-03   -2.213e-02  
  9.8000e-02    2.776e-04    2.637e-03   -5.318e-03   -2.149e-02  
  9.9000e-02    2.802e-04    2.631e-03   -5.338e-03   -2.068e-02  
    0.10000     2.828e-04    2.626e-03   -5.357e-03   -1.990e-02  
y
x

        volt    param      
                    gx4    
   -0.10000     6.779e-02  
 -9.9000e-02     67.4542   
 -9.8000e-02   -1.621e+04  
 -9.7000e-02   -4.645e+06  
 -9.6000e-02   -5.171e+08  
 -9.5000e-02    1.580e+09  
 -9.4000e-02   -1.589e+09  
 -9.3000e-02    5.316e+08  
 -9.2000e-02     -0.7816   
 -9.1000e-02     -0.7390   
 -9.0000e-02     -0.7390   
 -8.9000e-02     -0.7674   
 -8.8000e-02     -0.7958   
 -8.7000e-02     -0.6821   
 -8.6000e-02     -0.8527   
 -8.5000e-02     -0.7532   
 -8.4000e-02     -0.7674   
 -8.3000e-02     -0.7532   
 -8.2000e-02     -0.9237   
 -8.1000e-02     -0.6395   
 -8.0000e-02     -0.8953   
 -7.9000e-02     -0.7816   
 -7.8000e-02     -0.7674   
 -7.7000e-02     -0.9095   
 -7.6000e-02     -0.7390   
 -7.5000e-02     -0.7816   
 -7.4000e-02     -0.9379   
 -7.3000e-02     -0.7390   
 -7.2000e-02     -0.8242   
 -7.1000e-02     -0.8811   
 -7.0000e-02     -0.8100   
 -6.9000e-02     -0.7674   
 -6.8000e-02     -0.9805   
 -6.7000e-02     -0.7105   
 -6.6000e-02     -0.8527   
 -6.5000e-02     -0.8953   
 -6.4000e-02     -0.7674   
 -6.3000e-02     -0.9237   
 -6.2000e-02     -0.7248   
 -6.1000e-02     -0.9379   
 -6.0000e-02     -0.7816   
 -5.9000e-02     -0.8598   
 -5.8000e-02     -0.8384   
 -5.7000e-02     -0.8242   
 -5.6000e-02     -0.7887   
 -5.5000e-02     -0.9379   
 -5.4000e-02     -0.6963   
 -5.3000e-02     -0.8953   
 -5.2000e-02     -0.8242   
 -5.1000e-02     -0.7674   
 -5.0000e-02     -0.8740   
 -4.9000e-02     -0.7674   
 -4.8000e-02     -0.7887   
 -4.7000e-02     -0.8313   
 -4.6000e-02     -0.7745   
 -4.5000e-02     -0.7887   
 -4.4000e-02     -0.7674   
 -4.3000e-02     -0.8171   
 -4.2000e-02     -0.6892   
 -4.1000e-02     -0.8455   
 -4.0000e-02     -0.6750   
 -3.9000e-02     -0.7887   
 -3.8000e-02     -0.7105   
 -3.7000e-02     -0.7461   
 -3.6000e-02     -0.6892   
 -3.5000e-02     -0.7461   
 -3.4000e-02     -0.6253   
 -3.3000e-02     -0.7958   
 -3.2000e-02     -0.5471   
 -3.1000e-02     -0.7674   
 -3.0000e-02     -0.6111   
 -2.9000e-02     -0.6395   
 -2.8000e-02     -0.6111   
 -2.7000e-02     -0.6750   
 -2.6000e-02     -0.5471   
 -2.5000e-02     -0.6004   
 -2.4000e-02     -0.6040   
 -2.3000e-02     -0.5294   
 -2.2000e-02     -0.5649   
 -2.1000e-02     -0.5187   
 -2.0000e-02     -0.5436   
 -1.9000e-02     -0.4654   
 -1.8000e-02     -0.5080   
 -1.7000e-02     -0.4583   
 -1.6000e-02     -0.4654   
 -1.5000e-02     -0.4228   
 -1.4000e-02     -0.4121   
 -1.3000e-02     -0.4015   
 -1.2000e-02     -0.3890   
 -1.1000e-02     -0.3411   
 -1.0000e-02     -0.3553   
 -9.0000e-03     -0.3073   
 -8.0000e-03     -0.3073   
 -7.0000e-03     -0.2824   
 -6.0000e-03     -0.2469   
 -5.0000e-03     -0.2469   
 -4.0000e-03     -0.2087   
 -3.0000e-03     -0.1927   
 -2.0000e-03     -0.1759   
 -1.0000e-03     -0.1448   
    0.           -0.1323   
  1.0000e-03     -0.1013   
  2.0000e-03   -8.415e-02  
  3.0000e-03   -6.539e-02  
  4.0000e-03   -3.806e-02  
  5.0000e-03   -2.185e-02  
  6.0000e-03    1.017e-03  
  7.0000e-03    1.890e-02  
  8.0000e-03    4.143e-02  
  9.0000e-03    6.461e-02  
  1.0000e-02    8.216e-02  
  1.1000e-02      0.1030   
  1.2000e-02      0.1283   
  1.3000e-02      0.1590   
  1.4000e-02      0.1545   
  1.5000e-02      0.2052   
  1.6000e-02      0.2123   
  1.7000e-02      0.2327   
  1.8000e-02      0.2647   
  1.9000e-02      0.2753   
  2.0000e-02      0.2895   
  2.1000e-02      0.3446   
  2.2000e-02      0.3109   
  2.3000e-02      0.3837   
  2.4000e-02      0.3588   
  2.5000e-02      0.4228   
  2.6000e-02      0.3872   
  2.7000e-02      0.4476   
  2.8000e-02      0.4512   
  2.9000e-02      0.4725   
  3.0000e-02      0.4654   
  3.1000e-02      0.5258   
  3.2000e-02      0.5151   
  3.3000e-02      0.5080   
  3.4000e-02      0.5791   
  3.5000e-02      0.5294   
  3.6000e-02      0.5933   
  3.7000e-02      0.5933   
  3.8000e-02      0.6040   
  3.9000e-02      0.6146   
  4.0000e-02      0.6146   
  4.1000e-02      0.6324   
  4.2000e-02      0.6963   
  4.3000e-02      0.6466   
  4.4000e-02      0.6395   
  4.5000e-02      0.7319   
  4.6000e-02      0.6750   
  4.7000e-02      0.7248   
  4.8000e-02      0.6750   
  4.9000e-02      0.7745   
  5.0000e-02      0.6750   
  5.1000e-02      0.8242   
  5.2000e-02      0.6821   
  5.3000e-02      0.7674   
  5.4000e-02      0.8029   
  5.5000e-02      0.7461   
  5.6000e-02      0.7603   
  5.7000e-02      0.8384   
  5.8000e-02      0.7319   
  5.9000e-02      0.8384   
  6.0000e-02      0.7958   
  6.1000e-02      0.7745   
  6.2000e-02      0.8740   
  6.3000e-02      0.7461   
  6.4000e-02      0.8669   
  6.5000e-02      0.8171   
  6.6000e-02      0.8029   
  6.7000e-02      0.8384   
  6.8000e-02      0.8242   
  6.9000e-02      0.8669   
  7.0000e-02      0.8242   
  7.1000e-02      0.7603   
  7.2000e-02      0.9308   
  7.3000e-02      0.8384   
  7.4000e-02      0.7248   
  7.5000e-02      0.9948   
  7.6000e-02      0.7390   
  7.7000e-02      0.8100   
  7.8000e-02      0.9663   
  7.9000e-02      0.6821   
  8.0000e-02      0.9379   
  8.1000e-02      0.8242   
  8.2000e-02      0.7674   
  8.3000e-02      0.9237   
  8.4000e-02      0.6963   
  8.5000e-02      0.9805   
  8.6000e-02      0.7105   
  8.7000e-02      0.8384   
  8.8000e-02      0.8669   
  8.9000e-02      0.6963   
  9.0000e-02      0.9805   
  9.1000e-02      0.6253   
  9.2000e-02      0.9379   
  9.3000e-02      0.7105   
  9.4000e-02      0.8384   
  9.5000e-02      0.8100   
  9.6000e-02      0.6821   
  9.7000e-02      0.8242   
  9.8000e-02      0.8669   
  9.9000e-02      0.6395   
    0.10000       0.8100   
y
-----------------------------------------------

          ***** job concluded
1****** HSPICE -- G-2012.06 32-BIT (May 27 2012) RHEL32 ******                  
 ******  
 *sample netlist for bsim-mg

  ******  job statistics summary tnom=  25.000 temp=  25.000 *****
  
  
 ******  Machine Information  ******
 CPU:
 model name	: Intel(R) Xeon(R) CPU E5-2643 0 @ 3.30GHz
 cpu MHz	: 3299.813
  
 OS:
 Linux version 2.6.32-573.7.1.el6.x86_64 (mockbuild@x86-031.build.eng.bos.redhat.com) (gcc version 4.4.7 20120313 (Red Hat 4.4.7-16) (GCC) ) #1 SMP Thu Sep 10 13:42:16 EDT 2015


  ******  HSPICE Threads Information  ******

  Command Line Threads Count :     1
  Available CPU Count        :     8
  Actual Threads Count       :     1


  ******  Circuit Statistics  ******
  # nodes       =      10 # elements   =       5
  # resistors   =       0 # capacitors =       0 # inductors   =       0
  # mutual_inds =       0 # vccs       =       0 # vcvs        =       1
  # cccs        =       0 # ccvs       =       0 # volt_srcs   =       3
  # curr_srcs   =       0 # diodes     =       0 # bjts        =       0
  # jfets       =       0 # mosfets    =       0 # U elements  =       0
  # T elements  =       0 # W elements =       0 # B elements  =       0
  # S elements  =       0 # P elements =       0 # va device   =       1
  # vector_srcs =       0 # N elements =       0


  ******  Runtime Statistics (seconds)  ******

  analysis           time    # points   tot. iter  conv.iter
  op point           0.00           1           0
  dc sweep           0.18        1206        2424
  readin             3.06
  errchk             0.06
  setup              0.00
  output             0.00


           peak memory used        119.22 megabytes
           total cpu time            3.30 seconds
           total elapsed time        8.78 seconds
           job started at     08:28:06 12/31/2015
           job ended   at     08:28:15 12/31/2015


 lic: Release hspice token(s) 
 lic: total license checkout elapse time:        0.21(s)
