 ****** HSPICE -- G-2012.06 32-BIT (May 27 2012) RHEL32 ******                  
  Copyright (C) 2012 Synopsys, Inc. All Rights Reserved.                        
  Unpublished-rights reserved under US copyright laws.
  This program is protected by law and is subject to the
  terms and conditions of the license agreement from Synopsys.
  Use of this program is your acceptance to be bound by the
  license agreement. HSPICE is the trademark of Synopsys, Inc.
  Input File: idvdnmos.sp                                                       
  Command line options: -hdlpath ../code -i idvdnmos.sp -o idvdnmos
 lic:  
 lic: FLEXlm: v10.8 
 lic: USER:   sourabh              HOSTNAME: bwrcr720-2.eecs.berkeley.edu 
 lic: HOSTID:                      PID:      14880 
 lic: Using FLEXlm license file: 
 lic: 1701@sunv40z-1.eecs.berkeley.edu 
 lic: Checkout 1 hspice 
 lic: License/Maintenance for hspice will expire on 18-nov-2016/2015.06 
 lic: 1(in_use)/50(total) FLOATING license(s) on SERVER sunv40z-1.eecs.berkeley.
 lic:   
 Init: read install configuration file: /tools/synopsys/hspice/G-2012.06/hspice/meta.cfg
 **info** *pvaI* Module (bsimcmg): 5 unexpanded port, 0 init, 2015 behav, 64 contrib, 49/3015 expr(s)

 **info** *pvaI* Resizing DB size for v count = 1

 **info** *pvaI* Resizing DB size for v count = 2

 **info** *pvaI*        Has DIS (PC SB), 5 afCount

 **info** *pvaI*        0 const-G and 0 const-C, Has switch branch.

 **info** *pvaI* Module (bsimcmg): generated 4 flow node(s) during compilation.

 **info** *pvaI* #### Total 762 line-size(s), 49 expr(s), 64 contr(s), 0 init(s), 2015 behav(s), 5 port(s)

 Loading pVA library idvdnmos.pvadir/pvaRTL_linux.so...
1****** HSPICE -- G-2012.06 32-BIT (May 27 2012) RHEL32 ******                  
 ******  
 *sample netlist for bsim-mg

  ******  circuit name directory
 circuit number to circuit name directory
   number circuitname                     definition         multiplier
        0 main circuit
        1 x1.                             bsimcmg(va)        1.00 
 **info** *pvaI* Creating Verilog-A module 'bsimcmg' for X1

  
      
 *****************************************************************
 ******  option summary
 ******
 runlvl  = 3         bypass  = 2         
  Opening plot unit= 15
 file=idvdnmos.pa0                                                             

 ******  
 *sample netlist for bsim-mg

  ******  dc transfer curves tnom=  25.000 temp= -55.000 *****

   *** source        0:vgs =    0.            ***

x

        volt    param        param      
                    ids          gds    
    0.         -4.553e-19      0.       
  1.0000e-02    7.373e-17   -4.553e-17  
  2.0000e-02    1.162e-16    7.418e-15  
  3.0000e-02    1.370e-16    4.250e-15  
  4.0000e-02    1.492e-16    2.082e-15  
  5.0000e-02    1.527e-16    1.214e-15  
  6.0000e-02    1.596e-16    3.469e-16  
  7.0000e-02    1.596e-16    6.939e-16  
  8.0000e-02    1.665e-16      0.       
  9.0000e-02    1.665e-16    6.939e-16  
    0.10000     1.665e-16      0.       
    0.11000     1.665e-16      0.       
    0.12000     1.665e-16      0.       
    0.13000     1.665e-16      0.       
    0.14000     1.665e-16      0.       
    0.15000     1.665e-16      0.       
    0.16000     1.665e-16      0.       
    0.17000     1.665e-16      0.       
    0.18000     1.665e-16      0.       
    0.19000     1.665e-16      0.       
    0.20000     1.804e-16      0.       
    0.21000     1.665e-16    1.388e-15  
    0.22000     1.943e-16   -1.388e-15  
    0.23000     2.637e-16    2.776e-15  
    0.24000     3.608e-16    6.939e-15  
    0.25000     5.551e-16    9.714e-15  
    0.26000     8.604e-16    1.943e-14  
    0.27000     1.305e-15    3.053e-14  
    0.28000     1.915e-15    4.441e-14  
    0.29000     2.720e-15    6.106e-14  
    0.30000     3.775e-15    8.049e-14  
    0.31000     5.135e-15    1.055e-13  
    0.32000     6.828e-15    1.360e-13  
    0.33000     8.854e-15    1.693e-13  
    0.34000     1.132e-14    2.026e-13  
    0.35000     1.432e-14    2.470e-13  
    0.36000     1.779e-14    2.998e-13  
    0.37000     2.187e-14    3.469e-13  
    0.38000     2.665e-14    4.080e-13  
    0.39000     3.209e-14    4.774e-13  
    0.40000     3.833e-14    5.440e-13  
    0.41000     4.546e-14    6.245e-13  
    0.42000     5.343e-14    7.133e-13  
    0.43000     6.239e-14    7.966e-13  
    0.44000     7.247e-14    8.965e-13  
    0.45000     8.368e-14    1.008e-12  
    0.46000     9.612e-14    1.121e-12  
    0.47000     1.098e-13    1.243e-12  
    0.48000     1.248e-13    1.366e-12  
    0.49000     1.412e-13    1.502e-12  
    0.50000     1.593e-13    1.643e-12  
    0.51000     1.788e-13    1.804e-12  
    0.52000     2.000e-13    1.954e-12  
    0.53000     2.229e-13    2.115e-12  
    0.54000     2.476e-13    2.293e-12  
    0.55000     2.741e-13    2.470e-12  
    0.56000     3.025e-13    2.653e-12  
    0.57000     3.328e-13    2.837e-12  
    0.58000     3.652e-13    3.036e-12  
    0.59000     3.998e-13    3.236e-12  
    0.60000     4.364e-13    3.458e-12  
    0.61000     4.751e-13    3.664e-12  
    0.62000     5.161e-13    3.869e-12  
    0.63000     5.594e-13    4.102e-12  
    0.64000     6.049e-13    4.330e-12  
    0.65000     6.527e-13    4.546e-12  
    0.66000     7.028e-13    4.780e-12  
    0.67000     7.553e-13    5.013e-12  
    0.68000     8.102e-13    5.246e-12  
    0.69000     8.673e-13    5.490e-12  
    0.70000     9.269e-13    5.707e-12  
    0.71000     9.887e-13    5.962e-12  
    0.72000     1.053e-12    6.184e-12  
    0.73000     1.119e-12    6.423e-12  
    0.74000     1.188e-12    6.656e-12  
    0.75000     1.260e-12    6.894e-12  
    0.76000     1.333e-12    7.111e-12  
    0.77000     1.409e-12    7.344e-12  
    0.78000     1.487e-12    7.566e-12  
    0.79000     1.567e-12    7.788e-12  
    0.80000     1.649e-12    8.010e-12  
    0.81000     1.733e-12    8.216e-12  
    0.82000     1.819e-12    8.427e-12  
    0.83000     1.908e-12    8.632e-12  
    0.84000     1.998e-12    8.832e-12  
    0.85000     2.090e-12    9.026e-12  
    0.86000     2.184e-12    9.209e-12  
    0.87000     2.280e-12    9.404e-12  
    0.88000     2.377e-12    9.565e-12  
    0.89000     2.476e-12    9.759e-12  
    0.90000     2.577e-12    9.914e-12  
    0.91000     2.679e-12    1.008e-11  
    0.92000     2.783e-12    1.023e-11  
    0.93000     2.889e-12    1.038e-11  
    0.94000     2.995e-12    1.052e-11  
    0.95000     3.103e-12    1.066e-11  
    0.96000     3.212e-12    1.079e-11  
    0.97000     3.323e-12    1.091e-11  
    0.98000     3.434e-12    1.104e-11  
    0.99000     3.547e-12    1.116e-11  
    1.00000     3.661e-12    1.127e-11  
y
-----------------------------------------------
 ******  
 *sample netlist for bsim-mg

  ******  dc transfer curves tnom=  25.000 temp= -55.000 *****

   *** source        0:vgs =    0.1000        ***

x

        volt    param        param      
                    ids          gds    
    0.         -2.187e-19      0.       
  1.0000e-02    3.108e-15   -3.661e-10  
  2.0000e-02    4.902e-15    3.108e-13  
  3.0000e-02    5.836e-15    1.795e-13  
  4.0000e-02    6.328e-15    9.333e-14  
  5.0000e-02    6.637e-15    4.927e-14  
  6.0000e-02    6.870e-15    3.088e-14  
  7.0000e-02    7.071e-15    2.325e-14  
  8.0000e-02    7.272e-15    2.012e-14  
  9.0000e-02    7.473e-15    2.012e-14  
    0.10000     7.667e-15    2.012e-14  
    0.11000     7.883e-15    1.943e-14  
    0.12000     8.105e-15    2.151e-14  
    0.13000     8.327e-15    2.220e-14  
    0.14000     8.576e-15    2.220e-14  
    0.15000     8.826e-15    2.498e-14  
    0.16000     9.090e-15    2.498e-14  
    0.17000     9.354e-15    2.637e-14  
    0.18000     9.645e-15    2.637e-14  
    0.19000     9.923e-15    2.914e-14  
    0.20000     1.021e-14    2.776e-14  
    0.21000     1.055e-14    2.914e-14  
    0.22000     1.087e-14    3.331e-14  
    0.23000     1.121e-14    3.192e-14  
    0.24000     1.163e-14    3.469e-14  
    0.25000     1.210e-14    4.163e-14  
    0.26000     1.271e-14    4.718e-14  
    0.27000     1.338e-14    6.106e-14  
    0.28000     1.418e-14    6.661e-14  
    0.29000     1.515e-14    8.049e-14  
    0.30000     1.632e-14    9.714e-14  
    0.31000     1.771e-14    1.166e-13  
    0.32000     1.937e-14    1.388e-13  
    0.33000     2.132e-14    1.665e-13  
    0.34000     2.362e-14    1.943e-13  
    0.35000     2.623e-14    2.304e-13  
    0.36000     2.934e-14    2.609e-13  
    0.37000     3.295e-14    3.109e-13  
    0.38000     3.705e-14    3.608e-13  
    0.39000     4.174e-14    4.108e-13  
    0.40000     4.707e-14    4.691e-13  
    0.41000     5.307e-14    5.329e-13  
    0.42000     5.984e-14    5.995e-13  
    0.43000     6.745e-14    6.772e-13  
    0.44000     7.597e-14    7.605e-13  
    0.45000     8.540e-14    8.521e-13  
    0.46000     9.581e-14    9.437e-13  
    0.47000     1.074e-13    1.041e-12  
    0.48000     1.200e-13    1.155e-12  
    0.49000     1.339e-13    1.268e-12  
    0.50000     1.491e-13    1.391e-12  
    0.51000     1.656e-13    1.515e-12  
    0.52000     1.836e-13    1.654e-12  
    0.53000     2.030e-13    1.793e-12  
    0.54000     2.240e-13    1.943e-12  
    0.55000     2.466e-13    2.098e-12  
    0.56000     2.708e-13    2.259e-12  
    0.57000     2.969e-13    2.426e-12  
    0.58000     3.246e-13    2.603e-12  
    0.59000     3.542e-13    2.770e-12  
    0.60000     3.857e-13    2.959e-12  
    0.61000     4.192e-13    3.153e-12  
    0.62000     4.546e-13    3.347e-12  
    0.63000     4.920e-13    3.547e-12  
    0.64000     5.316e-13    3.736e-12  
    0.65000     5.731e-13    3.958e-12  
    0.66000     6.168e-13    4.152e-12  
    0.67000     6.626e-13    4.374e-12  
    0.68000     7.107e-13    4.580e-12  
    0.69000     7.608e-13    4.807e-12  
    0.70000     8.132e-13    5.013e-12  
    0.71000     8.678e-13    5.240e-12  
    0.72000     9.245e-13    5.457e-12  
    0.73000     9.834e-13    5.673e-12  
    0.74000     1.045e-12    5.890e-12  
    0.75000     1.108e-12    6.117e-12  
    0.76000     1.173e-12    6.328e-12  
    0.77000     1.241e-12    6.545e-12  
    0.78000     1.311e-12    6.767e-12  
    0.79000     1.382e-12    6.967e-12  
    0.80000     1.456e-12    7.178e-12  
    0.81000     1.532e-12    7.389e-12  
    0.82000     1.610e-12    7.588e-12  
    0.83000     1.690e-12    7.783e-12  
    0.84000     1.772e-12    7.988e-12  
    0.85000     1.855e-12    8.182e-12  
    0.86000     1.941e-12    8.371e-12  
    0.87000     2.028e-12    8.554e-12  
    0.88000     2.117e-12    8.721e-12  
    0.89000     2.208e-12    8.915e-12  
    0.90000     2.300e-12    9.071e-12  
    0.91000     2.394e-12    9.232e-12  
    0.92000     2.490e-12    9.409e-12  
    0.93000     2.587e-12    9.553e-12  
    0.94000     2.686e-12    9.709e-12  
    0.95000     2.786e-12    9.853e-12  
    0.96000     2.887e-12    9.998e-12  
    0.97000     2.989e-12    1.013e-11  
    0.98000     3.093e-12    1.026e-11  
    0.99000     3.198e-12    1.039e-11  
    1.00000     3.305e-12    1.050e-11  
y
-----------------------------------------------
 ******  
 *sample netlist for bsim-mg

  ******  dc transfer curves tnom=  25.000 temp= -55.000 *****

   *** source        0:vgs =    0.2000        ***

x

        volt    param        param      
                    ids          gds    
    0.         -2.821e-18      0.       
  1.0000e-02    3.740e-13   -3.305e-10  
  2.0000e-02    5.892e-13    3.740e-11  
  3.0000e-02    7.009e-13    2.153e-11  
  4.0000e-02    7.590e-13    1.116e-11  
  5.0000e-02    7.942e-13    5.818e-12  
  6.0000e-02    8.200e-13    3.515e-12  
  7.0000e-02    8.422e-13    2.583e-12  
  8.0000e-02    8.632e-13    2.221e-12  
  9.0000e-02    8.841e-13    2.100e-12  
    0.10000     9.053e-13    2.086e-12  
    0.11000     9.272e-13    2.124e-12  
    0.12000     9.497e-13    2.184e-12  
    0.13000     9.731e-13    2.258e-12  
    0.14000     9.973e-13    2.338e-12  
    0.15000     1.022e-12    2.418e-12  
    0.16000     1.048e-12    2.502e-12  
    0.17000     1.075e-12    2.590e-12  
    0.18000     1.103e-12    2.673e-12  
    0.19000     1.131e-12    2.758e-12  
    0.20000     1.160e-12    2.846e-12  
    0.21000     1.190e-12    2.927e-12  
    0.22000     1.221e-12    3.018e-12  
    0.23000     1.253e-12    3.103e-12  
    0.24000     1.286e-12    3.193e-12  
    0.25000     1.320e-12    3.288e-12  
    0.26000     1.355e-12    3.376e-12  
    0.27000     1.391e-12    3.479e-12  
    0.28000     1.427e-12    3.575e-12  
    0.29000     1.465e-12    3.678e-12  
    0.30000     1.504e-12    3.780e-12  
    0.31000     1.544e-12    3.889e-12  
    0.32000     1.585e-12    4.013e-12  
    0.33000     1.628e-12    4.122e-12  
    0.34000     1.672e-12    4.247e-12  
    0.35000     1.717e-12    4.372e-12  
    0.36000     1.763e-12    4.508e-12  
    0.37000     1.811e-12    4.646e-12  
    0.38000     1.860e-12    4.785e-12  
    0.39000     1.911e-12    4.943e-12  
    0.40000     1.964e-12    5.099e-12  
    0.41000     2.018e-12    5.260e-12  
    0.42000     2.074e-12    5.432e-12  
    0.43000     2.132e-12    5.609e-12  
    0.44000     2.192e-12    5.801e-12  
    0.45000     2.254e-12    5.992e-12  
    0.46000     2.318e-12    6.192e-12  
    0.47000     2.385e-12    6.406e-12  
    0.48000     2.453e-12    6.628e-12  
    0.49000     2.524e-12    6.850e-12  
    0.50000     2.597e-12    7.092e-12  
    0.51000     2.673e-12    7.330e-12  
    0.52000     2.752e-12    7.583e-12  
    0.53000     2.833e-12    7.855e-12  
    0.54000     2.917e-12    8.121e-12  
    0.55000     3.004e-12    8.404e-12  
    0.56000     3.094e-12    8.687e-12  
    0.57000     3.187e-12    8.998e-12  
    0.58000     3.283e-12    9.309e-12  
    0.59000     3.382e-12    9.615e-12  
    0.60000     3.485e-12    9.942e-12  
    0.61000     3.591e-12    1.028e-11  
    0.62000     3.701e-12    1.062e-11  
    0.63000     3.814e-12    1.096e-11  
    0.64000     3.931e-12    1.132e-11  
    0.65000     4.052e-12    1.170e-11  
    0.66000     4.176e-12    1.206e-11  
    0.67000     4.305e-12    1.244e-11  
    0.68000     4.437e-12    1.283e-11  
    0.69000     4.573e-12    1.321e-11  
    0.70000     4.713e-12    1.362e-11  
    0.71000     4.857e-12    1.402e-11  
    0.72000     5.006e-12    1.442e-11  
    0.73000     5.158e-12    1.484e-11  
    0.74000     5.315e-12    1.526e-11  
    0.75000     5.476e-12    1.568e-11  
    0.76000     5.642e-12    1.611e-11  
    0.77000     5.811e-12    1.654e-11  
    0.78000     5.986e-12    1.698e-11  
    0.79000     6.164e-12    1.741e-11  
    0.80000     6.347e-12    1.785e-11  
    0.81000     6.534e-12    1.830e-11  
    0.82000     6.727e-12    1.874e-11  
    0.83000     6.923e-12    1.920e-11  
    0.84000     7.124e-12    1.964e-11  
    0.85000     7.329e-12    2.009e-11  
    0.86000     7.540e-12    2.056e-11  
    0.87000     7.754e-12    2.101e-11  
    0.88000     7.973e-12    2.147e-11  
    0.89000     8.197e-12    2.192e-11  
    0.90000     8.426e-12    2.239e-11  
    0.91000     8.659e-12    2.285e-11  
    0.92000     8.897e-12    2.331e-11  
    0.93000     9.139e-12    2.378e-11  
    0.94000     9.386e-12    2.424e-11  
    0.95000     9.638e-12    2.473e-11  
    0.96000     9.895e-12    2.519e-11  
    0.97000     1.016e-11    2.566e-11  
    0.98000     1.042e-11    2.614e-11  
    0.99000     1.069e-11    2.662e-11  
    1.00000     1.097e-11    2.708e-11  
y
-----------------------------------------------
 ******  
 *sample netlist for bsim-mg

  ******  dc transfer curves tnom=  25.000 temp= -55.000 *****

   *** source        0:vgs =    0.3000        ***

x

        volt    param        param      
                    ids          gds    
    0.         -4.975e-16      0.       
  1.0000e-02    4.499e-11   -1.097e-09  
  2.0000e-02    7.084e-11    4.499e-09  
  3.0000e-02    8.417e-11    2.585e-09  
  4.0000e-02    9.101e-11    1.332e-09  
  5.0000e-02    9.504e-11    6.844e-10  
  6.0000e-02    9.790e-11    4.028e-10  
  7.0000e-02    1.003e-10    2.866e-10  
  8.0000e-02    1.025e-10    2.392e-10  
  9.0000e-02    1.047e-10    2.209e-10  
    0.10000     1.068e-10    2.156e-10  
    0.11000     1.090e-10    2.165e-10  
    0.12000     1.113e-10    2.204e-10  
    0.13000     1.136e-10    2.258e-10  
    0.14000     1.160e-10    2.320e-10  
    0.15000     1.184e-10    2.386e-10  
    0.16000     1.210e-10    2.453e-10  
    0.17000     1.236e-10    2.521e-10  
    0.18000     1.262e-10    2.589e-10  
    0.19000     1.289e-10    2.657e-10  
    0.20000     1.317e-10    2.725e-10  
    0.21000     1.346e-10    2.793e-10  
    0.22000     1.375e-10    2.861e-10  
    0.23000     1.405e-10    2.930e-10  
    0.24000     1.436e-10    2.998e-10  
    0.25000     1.467e-10    3.067e-10  
    0.26000     1.499e-10    3.136e-10  
    0.27000     1.532e-10    3.205e-10  
    0.28000     1.566e-10    3.275e-10  
    0.29000     1.600e-10    3.346e-10  
    0.30000     1.635e-10    3.417e-10  
    0.31000     1.670e-10    3.489e-10  
    0.32000     1.707e-10    3.562e-10  
    0.33000     1.744e-10    3.636e-10  
    0.34000     1.782e-10    3.711e-10  
    0.35000     1.820e-10    3.786e-10  
    0.36000     1.860e-10    3.863e-10  
    0.37000     1.900e-10    3.940e-10  
    0.38000     1.941e-10    4.019e-10  
    0.39000     1.983e-10    4.099e-10  
    0.40000     2.025e-10    4.179e-10  
    0.41000     2.069e-10    4.261e-10  
    0.42000     2.113e-10    4.345e-10  
    0.43000     2.158e-10    4.429e-10  
    0.44000     2.204e-10    4.515e-10  
    0.45000     2.251e-10    4.602e-10  
    0.46000     2.299e-10    4.690e-10  
    0.47000     2.347e-10    4.779e-10  
    0.48000     2.397e-10    4.870e-10  
    0.49000     2.448e-10    4.963e-10  
    0.50000     2.499e-10    5.056e-10  
    0.51000     2.552e-10    5.151e-10  
    0.52000     2.605e-10    5.248e-10  
    0.53000     2.660e-10    5.346e-10  
    0.54000     2.715e-10    5.446e-10  
    0.55000     2.772e-10    5.547e-10  
    0.56000     2.829e-10    5.650e-10  
    0.57000     2.888e-10    5.754e-10  
    0.58000     2.947e-10    5.860e-10  
    0.59000     3.008e-10    5.968e-10  
    0.60000     3.070e-10    6.077e-10  
    0.61000     3.133e-10    6.187e-10  
    0.62000     3.197e-10    6.300e-10  
    0.63000     3.262e-10    6.414e-10  
    0.64000     3.329e-10    6.530e-10  
    0.65000     3.397e-10    6.648e-10  
    0.66000     3.465e-10    6.767e-10  
    0.67000     3.536e-10    6.888e-10  
    0.68000     3.607e-10    7.012e-10  
    0.69000     3.680e-10    7.136e-10  
    0.70000     3.753e-10    7.263e-10  
    0.71000     3.829e-10    7.392e-10  
    0.72000     3.905e-10    7.522e-10  
    0.73000     3.983e-10    7.654e-10  
    0.74000     4.062e-10    7.789e-10  
    0.75000     4.143e-10    7.925e-10  
    0.76000     4.225e-10    8.063e-10  
    0.77000     4.308e-10    8.203e-10  
    0.78000     4.393e-10    8.345e-10  
    0.79000     4.480e-10    8.490e-10  
    0.80000     4.568e-10    8.636e-10  
    0.81000     4.657e-10    8.785e-10  
    0.82000     4.748e-10    8.935e-10  
    0.83000     4.840e-10    9.088e-10  
    0.84000     4.934e-10    9.242e-10  
    0.85000     5.030e-10    9.399e-10  
    0.86000     5.127e-10    9.559e-10  
    0.87000     5.226e-10    9.720e-10  
    0.88000     5.326e-10    9.884e-10  
    0.89000     5.429e-10    1.005e-09  
    0.90000     5.532e-10    1.022e-09  
    0.91000     5.638e-10    1.039e-09  
    0.92000     5.745e-10    1.056e-09  
    0.93000     5.855e-10    1.074e-09  
    0.94000     5.965e-10    1.091e-09  
    0.95000     6.078e-10    1.109e-09  
    0.96000     6.193e-10    1.128e-09  
    0.97000     6.309e-10    1.146e-09  
    0.98000     6.428e-10    1.165e-09  
    0.99000     6.548e-10    1.184e-09  
    1.00000     6.670e-10    1.203e-09  
y
-----------------------------------------------
 ******  
 *sample netlist for bsim-mg

  ******  dc transfer curves tnom=  25.000 temp= -55.000 *****

   *** source        0:vgs =    0.4000        ***

x

        volt    param        param      
                    ids          gds    
    0.         -7.973e-14      0.       
  1.0000e-02    5.407e-09   -6.671e-08  
  2.0000e-02    8.510e-09    5.407e-07  
  3.0000e-02    1.010e-08    3.102e-07  
  4.0000e-02    1.090e-08    1.590e-07  
  5.0000e-02    1.136e-08    8.048e-08  
  6.0000e-02    1.168e-08    4.607e-08  
  7.0000e-02    1.194e-08    3.162e-08  
  8.0000e-02    1.216e-08    2.545e-08  
  9.0000e-02    1.238e-08    2.282e-08  
    0.10000     1.260e-08    2.178e-08  
    0.11000     1.281e-08    2.150e-08  
    0.12000     1.303e-08    2.159e-08  
    0.13000     1.325e-08    2.188e-08  
    0.14000     1.348e-08    2.228e-08  
    0.15000     1.371e-08    2.272e-08  
    0.16000     1.395e-08    2.319e-08  
    0.17000     1.419e-08    2.367e-08  
    0.18000     1.444e-08    2.415e-08  
    0.19000     1.469e-08    2.464e-08  
    0.20000     1.495e-08    2.512e-08  
    0.21000     1.521e-08    2.561e-08  
    0.22000     1.547e-08    2.609e-08  
    0.23000     1.574e-08    2.656e-08  
    0.24000     1.602e-08    2.704e-08  
    0.25000     1.630e-08    2.751e-08  
    0.26000     1.658e-08    2.799e-08  
    0.27000     1.687e-08    2.846e-08  
    0.28000     1.716e-08    2.893e-08  
    0.29000     1.746e-08    2.941e-08  
    0.30000     1.777e-08    2.989e-08  
    0.31000     1.808e-08    3.036e-08  
    0.32000     1.839e-08    3.084e-08  
    0.33000     1.871e-08    3.133e-08  
    0.34000     1.903e-08    3.181e-08  
    0.35000     1.936e-08    3.230e-08  
    0.36000     1.969e-08    3.279e-08  
    0.37000     2.003e-08    3.329e-08  
    0.38000     2.037e-08    3.378e-08  
    0.39000     2.072e-08    3.429e-08  
    0.40000     2.107e-08    3.479e-08  
    0.41000     2.143e-08    3.530e-08  
    0.42000     2.179e-08    3.582e-08  
    0.43000     2.216e-08    3.634e-08  
    0.44000     2.254e-08    3.686e-08  
    0.45000     2.292e-08    3.739e-08  
    0.46000     2.330e-08    3.792e-08  
    0.47000     2.369e-08    3.846e-08  
    0.48000     2.409e-08    3.901e-08  
    0.49000     2.449e-08    3.956e-08  
    0.50000     2.489e-08    4.011e-08  
    0.51000     2.531e-08    4.067e-08  
    0.52000     2.572e-08    4.123e-08  
    0.53000     2.615e-08    4.180e-08  
    0.54000     2.658e-08    4.238e-08  
    0.55000     2.701e-08    4.296e-08  
    0.56000     2.745e-08    4.355e-08  
    0.57000     2.790e-08    4.414e-08  
    0.58000     2.836e-08    4.474e-08  
    0.59000     2.882e-08    4.535e-08  
    0.60000     2.928e-08    4.596e-08  
    0.61000     2.975e-08    4.658e-08  
    0.62000     3.023e-08    4.720e-08  
    0.63000     3.072e-08    4.783e-08  
    0.64000     3.121e-08    4.847e-08  
    0.65000     3.170e-08    4.911e-08  
    0.66000     3.221e-08    4.976e-08  
    0.67000     3.272e-08    5.041e-08  
    0.68000     3.324e-08    5.108e-08  
    0.69000     3.376e-08    5.174e-08  
    0.70000     3.429e-08    5.242e-08  
    0.71000     3.483e-08    5.310e-08  
    0.72000     3.538e-08    5.379e-08  
    0.73000     3.593e-08    5.449e-08  
    0.74000     3.649e-08    5.519e-08  
    0.75000     3.705e-08    5.590e-08  
    0.76000     3.763e-08    5.662e-08  
    0.77000     3.821e-08    5.734e-08  
    0.78000     3.879e-08    5.807e-08  
    0.79000     3.939e-08    5.881e-08  
    0.80000     3.999e-08    5.955e-08  
    0.81000     4.060e-08    6.031e-08  
    0.82000     4.122e-08    6.107e-08  
    0.83000     4.185e-08    6.183e-08  
    0.84000     4.248e-08    6.261e-08  
    0.85000     4.312e-08    6.339e-08  
    0.86000     4.377e-08    6.418e-08  
    0.87000     4.443e-08    6.498e-08  
    0.88000     4.510e-08    6.579e-08  
    0.89000     4.577e-08    6.660e-08  
    0.90000     4.645e-08    6.742e-08  
    0.91000     4.715e-08    6.825e-08  
    0.92000     4.784e-08    6.909e-08  
    0.93000     4.855e-08    6.993e-08  
    0.94000     4.927e-08    7.079e-08  
    0.95000     4.999e-08    7.165e-08  
    0.96000     5.073e-08    7.252e-08  
    0.97000     5.147e-08    7.340e-08  
    0.98000     5.222e-08    7.428e-08  
    0.99000     5.298e-08    7.518e-08  
    1.00000     5.375e-08    7.608e-08  
y
-----------------------------------------------
 ******  
 *sample netlist for bsim-mg

  ******  dc transfer curves tnom=  25.000 temp= -55.000 *****

   *** source        0:vgs =    0.5000        ***

x

        volt    param        param      
                    ids          gds    
    0.         -1.060e-11      0.       
  1.0000e-02    5.786e-07   -5.376e-06  
  2.0000e-02    9.269e-07    5.786e-05  
  3.0000e-02    1.112e-06    3.483e-05  
  4.0000e-02    1.207e-06    1.854e-05  
  5.0000e-02    1.260e-06    9.488e-06  
  6.0000e-02    1.294e-06    5.283e-06  
  7.0000e-02    1.320e-06    3.422e-06  
  8.0000e-02    1.342e-06    2.578e-06  
  9.0000e-02    1.362e-06    2.179e-06  
    0.10000     1.381e-06    1.986e-06  
    0.11000     1.399e-06    1.893e-06  
    0.12000     1.417e-06    1.852e-06  
    0.13000     1.436e-06    1.839e-06  
    0.14000     1.454e-06    1.842e-06  
    0.15000     1.473e-06    1.853e-06  
    0.16000     1.492e-06    1.869e-06  
    0.17000     1.511e-06    1.888e-06  
    0.18000     1.530e-06    1.909e-06  
    0.19000     1.550e-06    1.930e-06  
    0.20000     1.570e-06    1.952e-06  
    0.21000     1.590e-06    1.974e-06  
    0.22000     1.610e-06    1.996e-06  
    0.23000     1.630e-06    2.018e-06  
    0.24000     1.651e-06    2.040e-06  
    0.25000     1.672e-06    2.061e-06  
    0.26000     1.693e-06    2.083e-06  
    0.27000     1.714e-06    2.104e-06  
    0.28000     1.735e-06    2.126e-06  
    0.29000     1.757e-06    2.147e-06  
    0.30000     1.779e-06    2.168e-06  
    0.31000     1.801e-06    2.189e-06  
    0.32000     1.823e-06    2.210e-06  
    0.33000     1.846e-06    2.231e-06  
    0.34000     1.869e-06    2.251e-06  
    0.35000     1.891e-06    2.272e-06  
    0.36000     1.915e-06    2.293e-06  
    0.37000     1.938e-06    2.313e-06  
    0.38000     1.961e-06    2.334e-06  
    0.39000     1.985e-06    2.355e-06  
    0.40000     2.009e-06    2.375e-06  
    0.41000     2.033e-06    2.396e-06  
    0.42000     2.058e-06    2.417e-06  
    0.43000     2.082e-06    2.438e-06  
    0.44000     2.107e-06    2.458e-06  
    0.45000     2.132e-06    2.479e-06  
    0.46000     2.157e-06    2.500e-06  
    0.47000     2.183e-06    2.521e-06  
    0.48000     2.208e-06    2.542e-06  
    0.49000     2.234e-06    2.563e-06  
    0.50000     2.260e-06    2.584e-06  
    0.51000     2.287e-06    2.605e-06  
    0.52000     2.313e-06    2.626e-06  
    0.53000     2.340e-06    2.648e-06  
    0.54000     2.367e-06    2.669e-06  
    0.55000     2.394e-06    2.690e-06  
    0.56000     2.421e-06    2.712e-06  
    0.57000     2.449e-06    2.733e-06  
    0.58000     2.476e-06    2.755e-06  
    0.59000     2.504e-06    2.776e-06  
    0.60000     2.533e-06    2.798e-06  
    0.61000     2.561e-06    2.820e-06  
    0.62000     2.590e-06    2.841e-06  
    0.63000     2.618e-06    2.863e-06  
    0.64000     2.648e-06    2.885e-06  
    0.65000     2.677e-06    2.907e-06  
    0.66000     2.706e-06    2.930e-06  
    0.67000     2.736e-06    2.952e-06  
    0.68000     2.766e-06    2.974e-06  
    0.69000     2.796e-06    2.996e-06  
    0.70000     2.827e-06    3.019e-06  
    0.71000     2.857e-06    3.041e-06  
    0.72000     2.888e-06    3.064e-06  
    0.73000     2.919e-06    3.087e-06  
    0.74000     2.951e-06    3.110e-06  
    0.75000     2.982e-06    3.132e-06  
    0.76000     3.014e-06    3.155e-06  
    0.77000     3.046e-06    3.178e-06  
    0.78000     3.078e-06    3.201e-06  
    0.79000     3.111e-06    3.225e-06  
    0.80000     3.143e-06    3.248e-06  
    0.81000     3.176e-06    3.271e-06  
    0.82000     3.209e-06    3.295e-06  
    0.83000     3.243e-06    3.318e-06  
    0.84000     3.277e-06    3.342e-06  
    0.85000     3.310e-06    3.365e-06  
    0.86000     3.345e-06    3.389e-06  
    0.87000     3.379e-06    3.413e-06  
    0.88000     3.414e-06    3.437e-06  
    0.89000     3.448e-06    3.461e-06  
    0.90000     3.484e-06    3.485e-06  
    0.91000     3.519e-06    3.509e-06  
    0.92000     3.554e-06    3.534e-06  
    0.93000     3.590e-06    3.558e-06  
    0.94000     3.626e-06    3.582e-06  
    0.95000     3.663e-06    3.607e-06  
    0.96000     3.699e-06    3.632e-06  
    0.97000     3.736e-06    3.656e-06  
    0.98000     3.773e-06    3.681e-06  
    0.99000     3.810e-06    3.706e-06  
    1.00000     3.848e-06    3.731e-06  
y
-----------------------------------------------
 ******  
 *sample netlist for bsim-mg

  ******  dc transfer curves tnom=  25.000 temp= -55.000 *****

   *** source        0:vgs =    0.6000        ***

x

        volt    param        param      
                    ids          gds    
    0.         -2.226e-10      0.       
  1.0000e-02    9.974e-06   -3.848e-04  
  2.0000e-02    1.830e-05    9.975e-04  
  3.0000e-02    2.485e-05    8.329e-04  
  4.0000e-02    2.964e-05    6.544e-04  
  5.0000e-02    3.297e-05    4.796e-04  
  6.0000e-02    3.523e-05    3.329e-04  
  7.0000e-02    3.678e-05    2.259e-04  
  8.0000e-02    3.788e-05    1.549e-04  
  9.0000e-02    3.870e-05    1.099e-04  
    0.10000     3.934e-05    8.190e-05  
    0.11000     3.987e-05    6.425e-05  
    0.12000     4.033e-05    5.294e-05  
    0.13000     4.073e-05    4.554e-05  
    0.14000     4.110e-05    4.059e-05  
    0.15000     4.145e-05    3.721e-05  
    0.16000     4.178e-05    3.485e-05  
    0.17000     4.210e-05    3.318e-05  
    0.18000     4.242e-05    3.198e-05  
    0.19000     4.272e-05    3.110e-05  
    0.20000     4.302e-05    3.046e-05  
    0.21000     4.332e-05    2.999e-05  
    0.22000     4.361e-05    2.964e-05  
    0.23000     4.390e-05    2.938e-05  
    0.24000     4.419e-05    2.919e-05  
    0.25000     4.448e-05    2.905e-05  
    0.26000     4.477e-05    2.894e-05  
    0.27000     4.506e-05    2.887e-05  
    0.28000     4.535e-05    2.883e-05  
    0.29000     4.563e-05    2.880e-05  
    0.30000     4.592e-05    2.879e-05  
    0.31000     4.621e-05    2.879e-05  
    0.32000     4.650e-05    2.880e-05  
    0.33000     4.679e-05    2.881e-05  
    0.34000     4.708e-05    2.883e-05  
    0.35000     4.736e-05    2.886e-05  
    0.36000     4.765e-05    2.889e-05  
    0.37000     4.794e-05    2.893e-05  
    0.38000     4.823e-05    2.897e-05  
    0.39000     4.852e-05    2.901e-05  
    0.40000     4.881e-05    2.905e-05  
    0.41000     4.911e-05    2.909e-05  
    0.42000     4.940e-05    2.914e-05  
    0.43000     4.969e-05    2.918e-05  
    0.44000     4.998e-05    2.923e-05  
    0.45000     5.028e-05    2.928e-05  
    0.46000     5.057e-05    2.933e-05  
    0.47000     5.086e-05    2.938e-05  
    0.48000     5.116e-05    2.943e-05  
    0.49000     5.145e-05    2.948e-05  
    0.50000     5.175e-05    2.953e-05  
    0.51000     5.205e-05    2.958e-05  
    0.52000     5.234e-05    2.963e-05  
    0.53000     5.264e-05    2.968e-05  
    0.54000     5.294e-05    2.973e-05  
    0.55000     5.324e-05    2.978e-05  
    0.56000     5.354e-05    2.983e-05  
    0.57000     5.384e-05    2.988e-05  
    0.58000     5.413e-05    2.993e-05  
    0.59000     5.444e-05    2.999e-05  
    0.60000     5.474e-05    3.004e-05  
    0.61000     5.504e-05    3.009e-05  
    0.62000     5.534e-05    3.014e-05  
    0.63000     5.564e-05    3.019e-05  
    0.64000     5.594e-05    3.024e-05  
    0.65000     5.625e-05    3.029e-05  
    0.66000     5.655e-05    3.034e-05  
    0.67000     5.686e-05    3.039e-05  
    0.68000     5.716e-05    3.044e-05  
    0.69000     5.747e-05    3.049e-05  
    0.70000     5.777e-05    3.055e-05  
    0.71000     5.808e-05    3.060e-05  
    0.72000     5.839e-05    3.065e-05  
    0.73000     5.869e-05    3.070e-05  
    0.74000     5.900e-05    3.075e-05  
    0.75000     5.931e-05    3.080e-05  
    0.76000     5.962e-05    3.085e-05  
    0.77000     5.993e-05    3.090e-05  
    0.78000     6.024e-05    3.095e-05  
    0.79000     6.055e-05    3.100e-05  
    0.80000     6.086e-05    3.105e-05  
    0.81000     6.117e-05    3.110e-05  
    0.82000     6.148e-05    3.115e-05  
    0.83000     6.180e-05    3.120e-05  
    0.84000     6.211e-05    3.125e-05  
    0.85000     6.242e-05    3.130e-05  
    0.86000     6.274e-05    3.134e-05  
    0.87000     6.305e-05    3.139e-05  
    0.88000     6.337e-05    3.144e-05  
    0.89000     6.368e-05    3.149e-05  
    0.90000     6.400e-05    3.154e-05  
    0.91000     6.431e-05    3.159e-05  
    0.92000     6.463e-05    3.164e-05  
    0.93000     6.495e-05    3.169e-05  
    0.94000     6.527e-05    3.174e-05  
    0.95000     6.558e-05    3.179e-05  
    0.96000     6.590e-05    3.183e-05  
    0.97000     6.622e-05    3.188e-05  
    0.98000     6.654e-05    3.193e-05  
    0.99000     6.686e-05    3.198e-05  
    1.00000     6.718e-05    3.203e-05  
y
-----------------------------------------------
 ******  
 *sample netlist for bsim-mg

  ******  dc transfer curves tnom=  25.000 temp= -55.000 *****

   *** source        0:vgs =    0.7000        ***

x

        volt    param        param      
                    ids          gds    
    0.         -7.966e-10      0.       
  1.0000e-02    2.574e-05   -6.718e-03  
  2.0000e-02    4.989e-05    2.574e-03  
  3.0000e-02    7.219e-05    2.415e-03  
  4.0000e-02    9.236e-05    2.230e-03  
  5.0000e-02    1.102e-04    2.017e-03  
  6.0000e-02    1.254e-04    1.779e-03  
  7.0000e-02    1.383e-04    1.529e-03  
  8.0000e-02    1.488e-04    1.282e-03  
  9.0000e-02    1.573e-04    1.054e-03  
    0.10000     1.642e-04    8.546e-04  
    0.11000     1.698e-04    6.883e-04  
    0.12000     1.743e-04    5.541e-04  
    0.13000     1.779e-04    4.482e-04  
    0.14000     1.809e-04    3.659e-04  
    0.15000     1.835e-04    3.024e-04  
    0.16000     1.856e-04    2.534e-04  
    0.17000     1.875e-04    2.156e-04  
    0.18000     1.891e-04    1.862e-04  
    0.19000     1.906e-04    1.633e-04  
    0.20000     1.919e-04    1.453e-04  
    0.21000     1.931e-04    1.311e-04  
    0.22000     1.942e-04    1.197e-04  
    0.23000     1.952e-04    1.106e-04  
    0.24000     1.962e-04    1.032e-04  
    0.25000     1.971e-04    9.720e-05  
    0.26000     1.980e-04    9.226e-05  
    0.27000     1.988e-04    8.817e-05  
    0.28000     1.997e-04    8.478e-05  
    0.29000     2.005e-04    8.194e-05  
    0.30000     2.012e-04    7.955e-05  
    0.31000     2.020e-04    7.753e-05  
    0.32000     2.027e-04    7.581e-05  
    0.33000     2.035e-04    7.435e-05  
    0.34000     2.042e-04    7.309e-05  
    0.35000     2.049e-04    7.201e-05  
    0.36000     2.056e-04    7.108e-05  
    0.37000     2.063e-04    7.027e-05  
    0.38000     2.070e-04    6.956e-05  
    0.39000     2.077e-04    6.894e-05  
    0.40000     2.084e-04    6.840e-05  
    0.41000     2.090e-04    6.793e-05  
    0.42000     2.097e-04    6.751e-05  
    0.43000     2.104e-04    6.714e-05  
    0.44000     2.110e-04    6.681e-05  
    0.45000     2.117e-04    6.652e-05  
    0.46000     2.124e-04    6.626e-05  
    0.47000     2.130e-04    6.602e-05  
    0.48000     2.137e-04    6.582e-05  
    0.49000     2.143e-04    6.563e-05  
    0.50000     2.150e-04    6.547e-05  
    0.51000     2.156e-04    6.532e-05  
    0.52000     2.163e-04    6.518e-05  
    0.53000     2.169e-04    6.506e-05  
    0.54000     2.176e-04    6.495e-05  
    0.55000     2.182e-04    6.485e-05  
    0.56000     2.189e-04    6.476e-05  
    0.57000     2.195e-04    6.468e-05  
    0.58000     2.202e-04    6.461e-05  
    0.59000     2.208e-04    6.454e-05  
    0.60000     2.215e-04    6.448e-05  
    0.61000     2.221e-04    6.443e-05  
    0.62000     2.227e-04    6.438e-05  
    0.63000     2.234e-04    6.433e-05  
    0.64000     2.240e-04    6.429e-05  
    0.65000     2.247e-04    6.425e-05  
    0.66000     2.253e-04    6.422e-05  
    0.67000     2.259e-04    6.419e-05  
    0.68000     2.266e-04    6.416e-05  
    0.69000     2.272e-04    6.414e-05  
    0.70000     2.279e-04    6.411e-05  
    0.71000     2.285e-04    6.409e-05  
    0.72000     2.292e-04    6.407e-05  
    0.73000     2.298e-04    6.406e-05  
    0.74000     2.304e-04    6.404e-05  
    0.75000     2.311e-04    6.403e-05  
    0.76000     2.317e-04    6.402e-05  
    0.77000     2.324e-04    6.401e-05  
    0.78000     2.330e-04    6.400e-05  
    0.79000     2.336e-04    6.399e-05  
    0.80000     2.343e-04    6.398e-05  
    0.81000     2.349e-04    6.398e-05  
    0.82000     2.356e-04    6.397e-05  
    0.83000     2.362e-04    6.397e-05  
    0.84000     2.368e-04    6.396e-05  
    0.85000     2.375e-04    6.396e-05  
    0.86000     2.381e-04    6.396e-05  
    0.87000     2.388e-04    6.395e-05  
    0.88000     2.394e-04    6.395e-05  
    0.89000     2.400e-04    6.395e-05  
    0.90000     2.407e-04    6.395e-05  
    0.91000     2.413e-04    6.395e-05  
    0.92000     2.419e-04    6.395e-05  
    0.93000     2.426e-04    6.395e-05  
    0.94000     2.432e-04    6.396e-05  
    0.95000     2.439e-04    6.396e-05  
    0.96000     2.445e-04    6.396e-05  
    0.97000     2.451e-04    6.396e-05  
    0.98000     2.458e-04    6.396e-05  
    0.99000     2.464e-04    6.397e-05  
    1.00000     2.471e-04    6.397e-05  
y
-----------------------------------------------
 ******  
 *sample netlist for bsim-mg

  ******  dc transfer curves tnom=  25.000 temp= -55.000 *****

   *** source        0:vgs =    0.8000        ***

x

        volt    param        param      
                    ids          gds    
    0.         -1.714e-09      0.       
  1.0000e-02    3.849e-05   -2.471e-02  
  2.0000e-02    7.582e-05    3.849e-03  
  3.0000e-02    1.118e-04    3.733e-03  
  4.0000e-02    1.462e-04    3.599e-03  
  5.0000e-02    1.788e-04    3.441e-03  
  6.0000e-02    2.093e-04    3.257e-03  
  7.0000e-02    2.374e-04    3.047e-03  
  8.0000e-02    2.631e-04    2.814e-03  
  9.0000e-02    2.862e-04    2.565e-03  
    0.10000     3.067e-04    2.308e-03  
    0.11000     3.247e-04    2.052e-03  
    0.12000     3.405e-04    1.806e-03  
    0.13000     3.542e-04    1.576e-03  
    0.14000     3.660e-04    1.366e-03  
    0.15000     3.761e-04    1.180e-03  
    0.16000     3.849e-04    1.017e-03  
    0.17000     3.924e-04    8.763e-04  
    0.18000     3.990e-04    7.564e-04  
    0.19000     4.047e-04    6.550e-04  
    0.20000     4.097e-04    5.695e-04  
    0.21000     4.140e-04    4.977e-04  
    0.22000     4.179e-04    4.374e-04  
    0.23000     4.214e-04    3.869e-04  
    0.24000     4.244e-04    3.444e-04  
    0.25000     4.272e-04    3.086e-04  
    0.26000     4.298e-04    2.785e-04  
    0.27000     4.321e-04    2.529e-04  
    0.28000     4.342e-04    2.313e-04  
    0.29000     4.362e-04    2.128e-04  
    0.30000     4.380e-04    1.970e-04  
    0.31000     4.397e-04    1.835e-04  
    0.32000     4.413e-04    1.719e-04  
    0.33000     4.429e-04    1.618e-04  
    0.34000     4.443e-04    1.531e-04  
    0.35000     4.457e-04    1.455e-04  
    0.36000     4.470e-04    1.389e-04  
    0.37000     4.483e-04    1.331e-04  
    0.38000     4.496e-04    1.281e-04  
    0.39000     4.508e-04    1.236e-04  
    0.40000     4.519e-04    1.197e-04  
    0.41000     4.531e-04    1.162e-04  
    0.42000     4.542e-04    1.131e-04  
    0.43000     4.552e-04    1.103e-04  
    0.44000     4.563e-04    1.079e-04  
    0.45000     4.573e-04    1.057e-04  
    0.46000     4.583e-04    1.037e-04  
    0.47000     4.593e-04    1.019e-04  
    0.48000     4.603e-04    1.003e-04  
    0.49000     4.613e-04    9.887e-05  
    0.50000     4.623e-04    9.756e-05  
    0.51000     4.632e-04    9.638e-05  
    0.52000     4.642e-04    9.530e-05  
    0.53000     4.651e-04    9.432e-05  
    0.54000     4.660e-04    9.343e-05  
    0.55000     4.670e-04    9.262e-05  
    0.56000     4.679e-04    9.187e-05  
    0.57000     4.688e-04    9.119e-05  
    0.58000     4.697e-04    9.056e-05  
    0.59000     4.706e-04    8.999e-05  
    0.60000     4.715e-04    8.946e-05  
    0.61000     4.723e-04    8.897e-05  
    0.62000     4.732e-04    8.851e-05  
    0.63000     4.741e-04    8.810e-05  
    0.64000     4.750e-04    8.771e-05  
    0.65000     4.758e-04    8.735e-05  
    0.66000     4.767e-04    8.701e-05  
    0.67000     4.776e-04    8.670e-05  
    0.68000     4.784e-04    8.642e-05  
    0.69000     4.793e-04    8.615e-05  
    0.70000     4.801e-04    8.589e-05  
    0.71000     4.810e-04    8.566e-05  
    0.72000     4.819e-04    8.544e-05  
    0.73000     4.827e-04    8.523e-05  
    0.74000     4.836e-04    8.504e-05  
    0.75000     4.844e-04    8.486e-05  
    0.76000     4.852e-04    8.469e-05  
    0.77000     4.861e-04    8.453e-05  
    0.78000     4.869e-04    8.437e-05  
    0.79000     4.878e-04    8.423e-05  
    0.80000     4.886e-04    8.410e-05  
    0.81000     4.895e-04    8.397e-05  
    0.82000     4.903e-04    8.385e-05  
    0.83000     4.911e-04    8.373e-05  
    0.84000     4.920e-04    8.363e-05  
    0.85000     4.928e-04    8.352e-05  
    0.86000     4.936e-04    8.343e-05  
    0.87000     4.945e-04    8.333e-05  
    0.88000     4.953e-04    8.325e-05  
    0.89000     4.961e-04    8.316e-05  
    0.90000     4.970e-04    8.308e-05  
    0.91000     4.978e-04    8.300e-05  
    0.92000     4.986e-04    8.293e-05  
    0.93000     4.994e-04    8.286e-05  
    0.94000     5.003e-04    8.280e-05  
    0.95000     5.011e-04    8.273e-05  
    0.96000     5.019e-04    8.267e-05  
    0.97000     5.027e-04    8.261e-05  
    0.98000     5.036e-04    8.255e-05  
    0.99000     5.044e-04    8.250e-05  
    1.00000     5.052e-04    8.245e-05  
y
-----------------------------------------------
 ******  
 *sample netlist for bsim-mg

  ******  dc transfer curves tnom=  25.000 temp= -55.000 *****

   *** source        0:vgs =    0.9000        ***

x

        volt    param        param      
                    ids          gds    
    0.         -3.010e-09      0.       
  1.0000e-02    4.746e-05   -5.052e-02  
  2.0000e-02    9.411e-05    4.746e-03  
  3.0000e-02    1.398e-04    4.665e-03  
  4.0000e-02    1.844e-04    4.571e-03  
  5.0000e-02    2.277e-04    4.460e-03  
  6.0000e-02    2.695e-04    4.329e-03  
  7.0000e-02    3.095e-04    4.178e-03  
  8.0000e-02    3.476e-04    4.005e-03  
  9.0000e-02    3.836e-04    3.811e-03  
    0.10000     4.173e-04    3.598e-03  
    0.11000     4.487e-04    3.371e-03  
    0.12000     4.776e-04    3.133e-03  
    0.13000     5.040e-04    2.891e-03  
    0.14000     5.282e-04    2.648e-03  
    0.15000     5.500e-04    2.410e-03  
    0.16000     5.696e-04    2.182e-03  
    0.17000     5.873e-04    1.966e-03  
    0.18000     6.031e-04    1.765e-03  
    0.19000     6.172e-04    1.581e-03  
    0.20000     6.298e-04    1.413e-03  
    0.21000     6.411e-04    1.262e-03  
    0.22000     6.512e-04    1.127e-03  
    0.23000     6.602e-04    1.007e-03  
    0.24000     6.683e-04    9.007e-04  
    0.25000     6.755e-04    8.073e-04  
    0.26000     6.820e-04    7.253e-04  
    0.27000     6.879e-04    6.533e-04  
    0.28000     6.933e-04    5.901e-04  
    0.29000     6.982e-04    5.348e-04  
    0.30000     7.026e-04    4.864e-04  
    0.31000     7.067e-04    4.439e-04  
    0.32000     7.104e-04    4.065e-04  
    0.33000     7.138e-04    3.737e-04  
    0.34000     7.170e-04    3.448e-04  
    0.35000     7.200e-04    3.194e-04  
    0.36000     7.228e-04    2.969e-04  
    0.37000     7.254e-04    2.770e-04  
    0.38000     7.278e-04    2.593e-04  
    0.39000     7.301e-04    2.437e-04  
    0.40000     7.323e-04    2.297e-04  
    0.41000     7.343e-04    2.173e-04  
    0.42000     7.363e-04    2.061e-04  
    0.43000     7.382e-04    1.962e-04  
    0.44000     7.400e-04    1.873e-04  
    0.45000     7.417e-04    1.792e-04  
    0.46000     7.433e-04    1.720e-04  
    0.47000     7.449e-04    1.655e-04  
    0.48000     7.465e-04    1.596e-04  
    0.49000     7.480e-04    1.543e-04  
    0.50000     7.494e-04    1.494e-04  
    0.51000     7.508e-04    1.450e-04  
    0.52000     7.522e-04    1.410e-04  
    0.53000     7.535e-04    1.374e-04  
    0.54000     7.549e-04    1.341e-04  
    0.55000     7.561e-04    1.310e-04  
    0.56000     7.574e-04    1.282e-04  
    0.57000     7.586e-04    1.257e-04  
    0.58000     7.598e-04    1.233e-04  
    0.59000     7.610e-04    1.212e-04  
    0.60000     7.622e-04    1.192e-04  
    0.61000     7.634e-04    1.174e-04  
    0.62000     7.645e-04    1.157e-04  
    0.63000     7.656e-04    1.141e-04  
    0.64000     7.667e-04    1.126e-04  
    0.65000     7.678e-04    1.113e-04  
    0.66000     7.689e-04    1.101e-04  
    0.67000     7.700e-04    1.089e-04  
    0.68000     7.711e-04    1.078e-04  
    0.69000     7.721e-04    1.068e-04  
    0.70000     7.732e-04    1.059e-04  
    0.71000     7.742e-04    1.050e-04  
    0.72000     7.753e-04    1.042e-04  
    0.73000     7.763e-04    1.034e-04  
    0.74000     7.773e-04    1.027e-04  
    0.75000     7.783e-04    1.021e-04  
    0.76000     7.793e-04    1.014e-04  
    0.77000     7.803e-04    1.008e-04  
    0.78000     7.813e-04    1.003e-04  
    0.79000     7.823e-04    9.978e-05  
    0.80000     7.833e-04    9.929e-05  
    0.81000     7.843e-04    9.883e-05  
    0.82000     7.853e-04    9.839e-05  
    0.83000     7.863e-04    9.798e-05  
    0.84000     7.872e-04    9.760e-05  
    0.85000     7.882e-04    9.723e-05  
    0.86000     7.892e-04    9.688e-05  
    0.87000     7.901e-04    9.656e-05  
    0.88000     7.911e-04    9.625e-05  
    0.89000     7.920e-04    9.595e-05  
    0.90000     7.930e-04    9.567e-05  
    0.91000     7.940e-04    9.541e-05  
    0.92000     7.949e-04    9.516e-05  
    0.93000     7.958e-04    9.492e-05  
    0.94000     7.968e-04    9.469e-05  
    0.95000     7.977e-04    9.447e-05  
    0.96000     7.987e-04    9.426e-05  
    0.97000     7.996e-04    9.407e-05  
    0.98000     8.006e-04    9.388e-05  
    0.99000     8.015e-04    9.370e-05  
    1.00000     8.024e-04    9.353e-05  
y
-----------------------------------------------
 ******  
 *sample netlist for bsim-mg

  ******  dc transfer curves tnom=  25.000 temp= -55.000 *****

   *** source        0:vgs =    1.0000        ***

x

        volt    param        param      
                    ids          gds    
    0.         -4.745e-09      0.       
  1.0000e-02    5.370e-05   -8.024e-02  
  2.0000e-02    1.068e-04    5.370e-03  
  3.0000e-02    1.593e-04    5.312e-03  
  4.0000e-02    2.109e-04    5.244e-03  
  5.0000e-02    2.616e-04    5.164e-03  
  6.0000e-02    3.112e-04    5.070e-03  
  7.0000e-02    3.595e-04    4.960e-03  
  8.0000e-02    4.064e-04    4.833e-03  
  9.0000e-02    4.517e-04    4.689e-03  
    0.10000     4.952e-04    4.529e-03  
    0.11000     5.368e-04    4.352e-03  
    0.12000     5.764e-04    4.161e-03  
    0.13000     6.139e-04    3.958e-03  
    0.14000     6.491e-04    3.745e-03  
    0.15000     6.822e-04    3.526e-03  
    0.16000     7.130e-04    3.304e-03  
    0.17000     7.416e-04    3.081e-03  
    0.18000     7.681e-04    2.861e-03  
    0.19000     7.925e-04    2.647e-03  
    0.20000     8.149e-04    2.441e-03  
    0.21000     8.355e-04    2.244e-03  
    0.22000     8.544e-04    2.059e-03  
    0.23000     8.716e-04    1.885e-03  
    0.24000     8.873e-04    1.723e-03  
    0.25000     9.017e-04    1.574e-03  
    0.26000     9.148e-04    1.437e-03  
    0.27000     9.268e-04    1.311e-03  
    0.28000     9.377e-04    1.197e-03  
    0.29000     9.477e-04    1.094e-03  
    0.30000     9.569e-04    1.000e-03  
    0.31000     9.653e-04    9.158e-04  
    0.32000     9.730e-04    8.396e-04  
    0.33000     9.801e-04    7.709e-04  
    0.34000     9.866e-04    7.091e-04  
    0.35000     9.926e-04    6.535e-04  
    0.36000     9.982e-04    6.035e-04  
    0.37000     1.003e-03    5.585e-04  
    0.38000     1.008e-03    5.179e-04  
    0.39000     1.013e-03    4.814e-04  
    0.40000     1.017e-03    4.485e-04  
    0.41000     1.021e-03    4.188e-04  
    0.42000     1.024e-03    3.920e-04  
    0.43000     1.028e-03    3.677e-04  
    0.44000     1.031e-03    3.458e-04  
    0.45000     1.034e-03    3.259e-04  
    0.46000     1.037e-03    3.078e-04  
    0.47000     1.040e-03    2.914e-04  
    0.48000     1.043e-03    2.765e-04  
    0.49000     1.045e-03    2.630e-04  
    0.50000     1.047e-03    2.506e-04  
    0.51000     1.050e-03    2.393e-04  
    0.52000     1.052e-03    2.290e-04  
    0.53000     1.054e-03    2.196e-04  
    0.54000     1.056e-03    2.109e-04  
    0.55000     1.058e-03    2.030e-04  
    0.56000     1.060e-03    1.957e-04  
    0.57000     1.062e-03    1.890e-04  
    0.58000     1.064e-03    1.828e-04  
    0.59000     1.065e-03    1.771e-04  
    0.60000     1.067e-03    1.719e-04  
    0.61000     1.069e-03    1.670e-04  
    0.62000     1.070e-03    1.625e-04  
    0.63000     1.072e-03    1.584e-04  
    0.64000     1.073e-03    1.545e-04  
    0.65000     1.075e-03    1.510e-04  
    0.66000     1.076e-03    1.477e-04  
    0.67000     1.078e-03    1.446e-04  
    0.68000     1.079e-03    1.417e-04  
    0.69000     1.080e-03    1.390e-04  
    0.70000     1.082e-03    1.365e-04  
    0.71000     1.083e-03    1.342e-04  
    0.72000     1.084e-03    1.320e-04  
    0.73000     1.086e-03    1.300e-04  
    0.74000     1.087e-03    1.281e-04  
    0.75000     1.088e-03    1.263e-04  
    0.76000     1.089e-03    1.247e-04  
    0.77000     1.091e-03    1.231e-04  
    0.78000     1.092e-03    1.216e-04  
    0.79000     1.093e-03    1.202e-04  
    0.80000     1.094e-03    1.189e-04  
    0.81000     1.095e-03    1.177e-04  
    0.82000     1.096e-03    1.166e-04  
    0.83000     1.098e-03    1.155e-04  
    0.84000     1.099e-03    1.145e-04  
    0.85000     1.100e-03    1.135e-04  
    0.86000     1.101e-03    1.126e-04  
    0.87000     1.102e-03    1.117e-04  
    0.88000     1.103e-03    1.109e-04  
    0.89000     1.104e-03    1.101e-04  
    0.90000     1.105e-03    1.094e-04  
    0.91000     1.106e-03    1.087e-04  
    0.92000     1.107e-03    1.080e-04  
    0.93000     1.109e-03    1.074e-04  
    0.94000     1.110e-03    1.068e-04  
    0.95000     1.111e-03    1.063e-04  
    0.96000     1.112e-03    1.057e-04  
    0.97000     1.113e-03    1.052e-04  
    0.98000     1.114e-03    1.047e-04  
    0.99000     1.115e-03    1.043e-04  
    1.00000     1.116e-03    1.038e-04  
y
-----------------------------------------------

          ***** job concluded
1****** HSPICE -- G-2012.06 32-BIT (May 27 2012) RHEL32 ******                  
 ******  
 *sample netlist for bsim-mg

  ******  job statistics summary tnom=  25.000 temp= -55.000 *****
  
  
 ******  Machine Information  ******
 CPU:
 model name	: Intel(R) Xeon(R) CPU E5-2643 0 @ 3.30GHz
 cpu MHz	: 3299.813
  
 OS:
 Linux version 2.6.32-573.7.1.el6.x86_64 (mockbuild@x86-031.build.eng.bos.redhat.com) (gcc version 4.4.7 20120313 (Red Hat 4.4.7-16) (GCC) ) #1 SMP Thu Sep 10 13:42:16 EDT 2015


  ******  HSPICE Threads Information  ******

  Command Line Threads Count :     1
  Available CPU Count        :     8
  Actual Threads Count       :     1


  ******  Circuit Statistics  ******
  # nodes       =       9 # elements   =       4
  # resistors   =       0 # capacitors =       0 # inductors   =       0
  # mutual_inds =       0 # vccs       =       0 # vcvs        =       0
  # cccs        =       0 # ccvs       =       0 # volt_srcs   =       3
  # curr_srcs   =       0 # diodes     =       0 # bjts        =       0
  # jfets       =       0 # mosfets    =       0 # U elements  =       0
  # T elements  =       0 # W elements =       0 # B elements  =       0
  # S elements  =       0 # P elements =       0 # va device   =       1
  # vector_srcs =       0 # N elements =       0


  ******  Runtime Statistics (seconds)  ******

  analysis           time    # points   tot. iter  conv.iter
  op point           0.00           1           0
  dc sweep           0.16        1111        2243
  readin             3.06
  errchk             0.06
  setup              0.00
  output             0.00


           peak memory used        119.21 megabytes
           total cpu time            3.28 seconds
           total elapsed time        8.78 seconds
           job started at     08:27:48 12/31/2015
           job ended   at     08:27:56 12/31/2015


 Loading pVA library idvdnmos.pvadir/pvaRTL_linux.so...
1****** HSPICE -- G-2012.06 32-BIT (May 27 2012) RHEL32 ******                  
 ******  
 *sample netlist for bsim-mg

  ******  circuit name directory
 circuit number to circuit name directory
   number circuitname                     definition         multiplier
        0 main circuit
        1 x1.                             bsimcmg(va)        1.00 
 **info** *pvaI* Creating Verilog-A module 'bsimcmg' for X1

  
      
 *****************************************************************
 ******  option summary
 ******
 runlvl  = 3         bypass  = 2         
  Opening plot unit= 15
 file=idvdnmos.pa1                                                             

 ******  
 *sample netlist for bsim-mg

  ******  dc transfer curves tnom=  25.000 temp=  27.000 *****

   *** source        0:vgs =    0.            ***

x

        volt    param        param      
                    ids          gds    
    0.         -7.783e-19      0.       
  1.0000e-02    3.219e-14   -7.783e-17  
  2.0000e-02    5.440e-14    3.219e-12  
  3.0000e-02    6.899e-14    2.221e-12  
  4.0000e-02    7.827e-14    1.459e-12  
  5.0000e-02    8.431e-14    9.286e-13  
  6.0000e-02    8.854e-14    6.033e-13  
  7.0000e-02    9.186e-14    4.236e-13  
  8.0000e-02    9.470e-14    3.313e-13  
  9.0000e-02    9.732e-14    2.838e-13  
    0.10000     9.987e-14    2.630e-13  
    0.11000     1.024e-13    2.547e-13  
    0.12000     1.050e-13    2.547e-13  
    0.13000     1.076e-13    2.567e-13  
    0.14000     1.103e-13    2.623e-13  
    0.15000     1.131e-13    2.706e-13  
    0.16000     1.159e-13    2.776e-13  
    0.17000     1.189e-13    2.859e-13  
    0.18000     1.219e-13    2.942e-13  
    0.19000     1.251e-13    3.053e-13  
    0.20000     1.283e-13    3.109e-13  
    0.21000     1.316e-13    3.234e-13  
    0.22000     1.350e-13    3.303e-13  
    0.23000     1.386e-13    3.428e-13  
    0.24000     1.424e-13    3.594e-13  
    0.25000     1.463e-13    3.747e-13  
    0.26000     1.506e-13    3.983e-13  
    0.27000     1.551e-13    4.233e-13  
    0.28000     1.600e-13    4.524e-13  
    0.29000     1.653e-13    4.885e-13  
    0.30000     1.710e-13    5.274e-13  
    0.31000     1.772e-13    5.718e-13  
    0.32000     1.839e-13    6.217e-13  
    0.33000     1.914e-13    6.745e-13  
    0.34000     1.995e-13    7.438e-13  
    0.35000     2.083e-13    8.105e-13  
    0.36000     2.180e-13    8.826e-13  
    0.37000     2.286e-13    9.714e-13  
    0.38000     2.402e-13    1.057e-12  
    0.39000     2.529e-13    1.160e-12  
    0.40000     2.667e-13    1.268e-12  
    0.41000     2.817e-13    1.382e-12  
    0.42000     2.982e-13    1.504e-12  
    0.43000     3.159e-13    1.640e-12  
    0.44000     3.353e-13    1.779e-12  
    0.45000     3.562e-13    1.932e-12  
    0.46000     3.788e-13    2.090e-12  
    0.47000     4.031e-13    2.259e-12  
    0.48000     4.294e-13    2.440e-12  
    0.49000     4.576e-13    2.623e-12  
    0.50000     4.878e-13    2.823e-12  
    0.51000     5.202e-13    3.017e-12  
    0.52000     5.548e-13    3.242e-12  
    0.53000     5.916e-13    3.458e-12  
    0.54000     6.309e-13    3.686e-12  
    0.55000     6.726e-13    3.930e-12  
    0.56000     7.169e-13    4.169e-12  
    0.57000     7.637e-13    4.424e-12  
    0.58000     8.131e-13    4.680e-12  
    0.59000     8.654e-13    4.946e-12  
    0.60000     9.203e-13    5.224e-12  
    0.61000     9.781e-13    5.496e-12  
    0.62000     1.039e-12    5.779e-12  
    0.63000     1.102e-12    6.062e-12  
    0.64000     1.169e-12    6.362e-12  
    0.65000     1.238e-12    6.639e-12  
    0.66000     1.311e-12    6.939e-12  
    0.67000     1.386e-12    7.239e-12  
    0.68000     1.464e-12    7.544e-12  
    0.69000     1.546e-12    7.833e-12  
    0.70000     1.630e-12    8.138e-12  
    0.71000     1.717e-12    8.432e-12  
    0.72000     1.807e-12    8.732e-12  
    0.73000     1.901e-12    9.021e-12  
    0.74000     1.997e-12    9.331e-12  
    0.75000     2.096e-12    9.620e-12  
    0.76000     2.198e-12    9.903e-12  
    0.77000     2.303e-12    1.020e-11  
    0.78000     2.410e-12    1.047e-11  
    0.79000     2.520e-12    1.074e-11  
    0.80000     2.633e-12    1.102e-11  
    0.81000     2.749e-12    1.129e-11  
    0.82000     2.867e-12    1.155e-11  
    0.83000     2.987e-12    1.180e-11  
    0.84000     3.110e-12    1.206e-11  
    0.85000     3.236e-12    1.231e-11  
    0.86000     3.363e-12    1.253e-11  
    0.87000     3.493e-12    1.277e-11  
    0.88000     3.626e-12    1.300e-11  
    0.89000     3.760e-12    1.321e-11  
    0.90000     3.896e-12    1.342e-11  
    0.91000     4.034e-12    1.363e-11  
    0.92000     4.175e-12    1.383e-11  
    0.93000     4.317e-12    1.402e-11  
    0.94000     4.461e-12    1.421e-11  
    0.95000     4.606e-12    1.438e-11  
    0.96000     4.753e-12    1.456e-11  
    0.97000     4.902e-12    1.472e-11  
    0.98000     5.053e-12    1.489e-11  
    0.99000     5.204e-12    1.503e-11  
    1.00000     5.358e-12    1.518e-11  
y
-----------------------------------------------
 ******  
 *sample netlist for bsim-mg

  ******  dc transfer curves tnom=  25.000 temp=  27.000 *****

   *** source        0:vgs =    0.1000        ***

x

        volt    param        param      
                    ids          gds    
    0.         -3.109e-17      0.       
  1.0000e-02    1.046e-12   -5.358e-10  
  2.0000e-02    1.767e-12    1.047e-10  
  3.0000e-02    2.240e-12    7.209e-11  
  4.0000e-02    2.538e-12    4.722e-11  
  5.0000e-02    2.730e-12    2.985e-11  
  6.0000e-02    2.862e-12    1.918e-11  
  7.0000e-02    2.964e-12    1.325e-11  
  8.0000e-02    3.049e-12    1.014e-11  
  9.0000e-02    3.127e-12    8.548e-12  
    0.10000     3.201e-12    7.772e-12  
    0.11000     3.275e-12    7.430e-12  
    0.12000     3.348e-12    7.327e-12  
    0.13000     3.423e-12    7.356e-12  
    0.14000     3.499e-12    7.464e-12  
    0.15000     3.577e-12    7.616e-12  
    0.16000     3.657e-12    7.797e-12  
    0.17000     3.739e-12    7.991e-12  
    0.18000     3.823e-12    8.198e-12  
    0.19000     3.909e-12    8.411e-12  
    0.20000     3.998e-12    8.631e-12  
    0.21000     4.088e-12    8.857e-12  
    0.22000     4.182e-12    9.077e-12  
    0.23000     4.277e-12    9.311e-12  
    0.24000     4.375e-12    9.544e-12  
    0.25000     4.475e-12    9.785e-12  
    0.26000     4.578e-12    1.003e-11  
    0.27000     4.683e-12    1.028e-11  
    0.28000     4.791e-12    1.054e-11  
    0.29000     4.902e-12    1.080e-11  
    0.30000     5.015e-12    1.107e-11  
    0.31000     5.132e-12    1.135e-11  
    0.32000     5.251e-12    1.163e-11  
    0.33000     5.373e-12    1.193e-11  
    0.34000     5.499e-12    1.223e-11  
    0.35000     5.627e-12    1.254e-11  
    0.36000     5.759e-12    1.286e-11  
    0.37000     5.895e-12    1.319e-11  
    0.38000     6.034e-12    1.354e-11  
    0.39000     6.176e-12    1.389e-11  
    0.40000     6.322e-12    1.426e-11  
    0.41000     6.473e-12    1.463e-11  
    0.42000     6.627e-12    1.503e-11  
    0.43000     6.785e-12    1.542e-11  
    0.44000     6.948e-12    1.583e-11  
    0.45000     7.115e-12    1.626e-11  
    0.46000     7.287e-12    1.671e-11  
    0.47000     7.463e-12    1.716e-11  
    0.48000     7.644e-12    1.762e-11  
    0.49000     7.830e-12    1.810e-11  
    0.50000     8.021e-12    1.860e-11  
    0.51000     8.217e-12    1.911e-11  
    0.52000     8.419e-12    1.963e-11  
    0.53000     8.626e-12    2.017e-11  
    0.54000     8.839e-12    2.072e-11  
    0.55000     9.058e-12    2.128e-11  
    0.56000     9.282e-12    2.186e-11  
    0.57000     9.513e-12    2.244e-11  
    0.58000     9.749e-12    2.305e-11  
    0.59000     9.992e-12    2.365e-11  
    0.60000     1.024e-11    2.430e-11  
    0.61000     1.050e-11    2.493e-11  
    0.62000     1.076e-11    2.559e-11  
    0.63000     1.103e-11    2.625e-11  
    0.64000     1.130e-11    2.692e-11  
    0.65000     1.159e-11    2.761e-11  
    0.66000     1.188e-11    2.830e-11  
    0.67000     1.218e-11    2.901e-11  
    0.68000     1.248e-11    2.972e-11  
    0.69000     1.279e-11    3.045e-11  
    0.70000     1.311e-11    3.118e-11  
    0.71000     1.344e-11    3.192e-11  
    0.72000     1.377e-11    3.266e-11  
    0.73000     1.411e-11    3.342e-11  
    0.74000     1.446e-11    3.418e-11  
    0.75000     1.482e-11    3.495e-11  
    0.76000     1.519e-11    3.572e-11  
    0.77000     1.556e-11    3.652e-11  
    0.78000     1.594e-11    3.730e-11  
    0.79000     1.633e-11    3.808e-11  
    0.80000     1.672e-11    3.889e-11  
    0.81000     1.713e-11    3.968e-11  
    0.82000     1.754e-11    4.050e-11  
    0.83000     1.796e-11    4.130e-11  
    0.84000     1.839e-11    4.211e-11  
    0.85000     1.883e-11    4.295e-11  
    0.86000     1.928e-11    4.376e-11  
    0.87000     1.973e-11    4.458e-11  
    0.88000     2.019e-11    4.543e-11  
    0.89000     2.066e-11    4.626e-11  
    0.90000     2.114e-11    4.710e-11  
    0.91000     2.163e-11    4.794e-11  
    0.92000     2.213e-11    4.880e-11  
    0.93000     2.263e-11    4.966e-11  
    0.94000     2.315e-11    5.050e-11  
    0.95000     2.367e-11    5.138e-11  
    0.96000     2.420e-11    5.225e-11  
    0.97000     2.474e-11    5.311e-11  
    0.98000     2.529e-11    5.400e-11  
    0.99000     2.585e-11    5.489e-11  
    1.00000     2.641e-11    5.577e-11  
y
-----------------------------------------------
 ******  
 *sample netlist for bsim-mg

  ******  dc transfer curves tnom=  25.000 temp=  27.000 *****

   *** source        0:vgs =    0.2000        ***

x

        volt    param        param      
                    ids          gds    
    0.         -1.996e-15      0.       
  1.0000e-02    3.402e-11   -2.642e-09  
  2.0000e-02    5.742e-11    3.402e-09  
  3.0000e-02    7.270e-11    2.341e-09  
  4.0000e-02    8.230e-11    1.528e-09  
  5.0000e-02    8.839e-11    9.595e-10  
  6.0000e-02    9.253e-11    6.093e-10  
  7.0000e-02    9.563e-11    4.137e-10  
  8.0000e-02    9.818e-11    3.096e-10  
  9.0000e-02    1.005e-10    2.555e-10  
    0.10000     1.026e-10    2.278e-10  
    0.11000     1.047e-10    2.144e-10  
    0.12000     1.068e-10    2.088e-10  
    0.13000     1.089e-10    2.076e-10  
    0.14000     1.110e-10    2.089e-10  
    0.15000     1.131e-10    2.117e-10  
    0.16000     1.153e-10    2.154e-10  
    0.17000     1.176e-10    2.197e-10  
    0.18000     1.199e-10    2.243e-10  
    0.19000     1.222e-10    2.291e-10  
    0.20000     1.246e-10    2.341e-10  
    0.21000     1.270e-10    2.392e-10  
    0.22000     1.295e-10    2.443e-10  
    0.23000     1.321e-10    2.496e-10  
    0.24000     1.347e-10    2.548e-10  
    0.25000     1.373e-10    2.601e-10  
    0.26000     1.400e-10    2.655e-10  
    0.27000     1.428e-10    2.708e-10  
    0.28000     1.456e-10    2.763e-10  
    0.29000     1.485e-10    2.818e-10  
    0.30000     1.514e-10    2.873e-10  
    0.31000     1.544e-10    2.929e-10  
    0.32000     1.575e-10    2.985e-10  
    0.33000     1.606e-10    3.042e-10  
    0.34000     1.637e-10    3.100e-10  
    0.35000     1.669e-10    3.159e-10  
    0.36000     1.702e-10    3.218e-10  
    0.37000     1.735e-10    3.277e-10  
    0.38000     1.769e-10    3.338e-10  
    0.39000     1.804e-10    3.399e-10  
    0.40000     1.839e-10    3.462e-10  
    0.41000     1.875e-10    3.525e-10  
    0.42000     1.912e-10    3.589e-10  
    0.43000     1.949e-10    3.653e-10  
    0.44000     1.987e-10    3.719e-10  
    0.45000     2.025e-10    3.785e-10  
    0.46000     2.064e-10    3.853e-10  
    0.47000     2.104e-10    3.921e-10  
    0.48000     2.145e-10    3.991e-10  
    0.49000     2.186e-10    4.061e-10  
    0.50000     2.228e-10    4.133e-10  
    0.51000     2.271e-10    4.205e-10  
    0.52000     2.315e-10    4.279e-10  
    0.53000     2.359e-10    4.353e-10  
    0.54000     2.404e-10    4.429e-10  
    0.55000     2.450e-10    4.505e-10  
    0.56000     2.496e-10    4.583e-10  
    0.57000     2.544e-10    4.662e-10  
    0.58000     2.592e-10    4.742e-10  
    0.59000     2.641e-10    4.823e-10  
    0.60000     2.691e-10    4.905e-10  
    0.61000     2.742e-10    4.988e-10  
    0.62000     2.793e-10    5.073e-10  
    0.63000     2.846e-10    5.159e-10  
    0.64000     2.899e-10    5.246e-10  
    0.65000     2.953e-10    5.334e-10  
    0.66000     3.009e-10    5.423e-10  
    0.67000     3.065e-10    5.514e-10  
    0.68000     3.122e-10    5.606e-10  
    0.69000     3.180e-10    5.698e-10  
    0.70000     3.238e-10    5.793e-10  
    0.71000     3.298e-10    5.888e-10  
    0.72000     3.359e-10    5.985e-10  
    0.73000     3.421e-10    6.083e-10  
    0.74000     3.484e-10    6.182e-10  
    0.75000     3.548e-10    6.283e-10  
    0.76000     3.612e-10    6.385e-10  
    0.77000     3.678e-10    6.488e-10  
    0.78000     3.745e-10    6.593e-10  
    0.79000     3.813e-10    6.699e-10  
    0.80000     3.883e-10    6.806e-10  
    0.81000     3.953e-10    6.915e-10  
    0.82000     4.024e-10    7.025e-10  
    0.83000     4.097e-10    7.136e-10  
    0.84000     4.170e-10    7.249e-10  
    0.85000     4.245e-10    7.363e-10  
    0.86000     4.321e-10    7.479e-10  
    0.87000     4.398e-10    7.596e-10  
    0.88000     4.477e-10    7.715e-10  
    0.89000     4.556e-10    7.835e-10  
    0.90000     4.637e-10    7.957e-10  
    0.91000     4.719e-10    8.080e-10  
    0.92000     4.802e-10    8.204e-10  
    0.93000     4.887e-10    8.331e-10  
    0.94000     4.973e-10    8.458e-10  
    0.95000     5.060e-10    8.588e-10  
    0.96000     5.148e-10    8.719e-10  
    0.97000     5.238e-10    8.851e-10  
    0.98000     5.330e-10    8.985e-10  
    0.99000     5.422e-10    9.121e-10  
    1.00000     5.516e-10    9.259e-10  
y
-----------------------------------------------
 ******  
 *sample netlist for bsim-mg

  ******  dc transfer curves tnom=  25.000 temp=  27.000 *****

   *** source        0:vgs =    0.3000        ***

x

        volt    param        param      
                    ids          gds    
    0.         -9.727e-14      0.       
  1.0000e-02    1.105e-09   -5.517e-08  
  2.0000e-02    1.865e-09    1.105e-07  
  3.0000e-02    2.359e-09    7.596e-08  
  4.0000e-02    2.667e-09    4.944e-08  
  5.0000e-02    2.861e-09    3.084e-08  
  6.0000e-02    2.990e-09    1.935e-08  
  7.0000e-02    3.084e-09    1.290e-08  
  8.0000e-02    3.160e-09    9.428e-09  
  9.0000e-02    3.226e-09    7.588e-09  
    0.10000     3.287e-09    6.614e-09  
    0.11000     3.346e-09    6.107e-09  
    0.12000     3.403e-09    5.856e-09  
    0.13000     3.461e-09    5.751e-09  
    0.14000     3.518e-09    5.731e-09  
    0.15000     3.577e-09    5.761e-09  
    0.16000     3.636e-09    5.822e-09  
    0.17000     3.695e-09    5.902e-09  
    0.18000     3.756e-09    5.993e-09  
    0.19000     3.818e-09    6.092e-09  
    0.20000     3.881e-09    6.196e-09  
    0.21000     3.946e-09    6.302e-09  
    0.22000     4.011e-09    6.411e-09  
    0.23000     4.077e-09    6.521e-09  
    0.24000     4.144e-09    6.632e-09  
    0.25000     4.213e-09    6.744e-09  
    0.26000     4.283e-09    6.856e-09  
    0.27000     4.354e-09    6.969e-09  
    0.28000     4.426e-09    7.083e-09  
    0.29000     4.499e-09    7.197e-09  
    0.30000     4.573e-09    7.312e-09  
    0.31000     4.648e-09    7.427e-09  
    0.32000     4.725e-09    7.543e-09  
    0.33000     4.803e-09    7.660e-09  
    0.34000     4.882e-09    7.777e-09  
    0.35000     4.962e-09    7.895e-09  
    0.36000     5.043e-09    8.015e-09  
    0.37000     5.126e-09    8.135e-09  
    0.38000     5.209e-09    8.255e-09  
    0.39000     5.294e-09    8.377e-09  
    0.40000     5.381e-09    8.500e-09  
    0.41000     5.468e-09    8.624e-09  
    0.42000     5.557e-09    8.749e-09  
    0.43000     5.647e-09    8.875e-09  
    0.44000     5.738e-09    9.003e-09  
    0.45000     5.831e-09    9.131e-09  
    0.46000     5.925e-09    9.261e-09  
    0.47000     6.020e-09    9.392e-09  
    0.48000     6.117e-09    9.524e-09  
    0.49000     6.215e-09    9.657e-09  
    0.50000     6.314e-09    9.792e-09  
    0.51000     6.415e-09    9.928e-09  
    0.52000     6.517e-09    1.007e-08  
    0.53000     6.620e-09    1.020e-08  
    0.54000     6.725e-09    1.034e-08  
    0.55000     6.831e-09    1.049e-08  
    0.56000     6.939e-09    1.063e-08  
    0.57000     7.048e-09    1.077e-08  
    0.58000     7.159e-09    1.092e-08  
    0.59000     7.271e-09    1.107e-08  
    0.60000     7.385e-09    1.122e-08  
    0.61000     7.500e-09    1.137e-08  
    0.62000     7.616e-09    1.152e-08  
    0.63000     7.735e-09    1.167e-08  
    0.64000     7.855e-09    1.183e-08  
    0.65000     7.976e-09    1.198e-08  
    0.66000     8.099e-09    1.214e-08  
    0.67000     8.224e-09    1.230e-08  
    0.68000     8.350e-09    1.246e-08  
    0.69000     8.478e-09    1.263e-08  
    0.70000     8.607e-09    1.279e-08  
    0.71000     8.739e-09    1.296e-08  
    0.72000     8.872e-09    1.313e-08  
    0.73000     9.006e-09    1.330e-08  
    0.74000     9.143e-09    1.347e-08  
    0.75000     9.281e-09    1.364e-08  
    0.76000     9.421e-09    1.382e-08  
    0.77000     9.562e-09    1.399e-08  
    0.78000     9.706e-09    1.417e-08  
    0.79000     9.851e-09    1.435e-08  
    0.80000     9.998e-09    1.453e-08  
    0.81000     1.015e-08    1.472e-08  
    0.82000     1.030e-08    1.490e-08  
    0.83000     1.045e-08    1.509e-08  
    0.84000     1.061e-08    1.528e-08  
    0.85000     1.076e-08    1.547e-08  
    0.86000     1.092e-08    1.567e-08  
    0.87000     1.108e-08    1.586e-08  
    0.88000     1.124e-08    1.606e-08  
    0.89000     1.141e-08    1.626e-08  
    0.90000     1.158e-08    1.646e-08  
    0.91000     1.174e-08    1.666e-08  
    0.92000     1.191e-08    1.687e-08  
    0.93000     1.209e-08    1.707e-08  
    0.94000     1.226e-08    1.728e-08  
    0.95000     1.244e-08    1.749e-08  
    0.96000     1.262e-08    1.771e-08  
    0.97000     1.280e-08    1.792e-08  
    0.98000     1.298e-08    1.814e-08  
    0.99000     1.317e-08    1.836e-08  
    1.00000     1.336e-08    1.858e-08  
y
-----------------------------------------------
 ******  
 *sample netlist for bsim-mg

  ******  dc transfer curves tnom=  25.000 temp=  27.000 *****

   *** source        0:vgs =    0.4000        ***

x

        volt    param        param      
                    ids          gds    
    0.         -4.132e-12      0.       
  1.0000e-02    3.523e-08   -1.336e-06  
  2.0000e-02    5.956e-08    3.523e-06  
  3.0000e-02    7.544e-08    2.433e-06  
  4.0000e-02    8.532e-08    1.587e-06  
  5.0000e-02    9.146e-08    9.881e-07  
  6.0000e-02    9.547e-08    6.141e-07  
  7.0000e-02    9.833e-08    4.016e-07  
  8.0000e-02    1.006e-07    2.857e-07  
  9.0000e-02    1.024e-07    2.229e-07  
    0.10000     1.041e-07    1.885e-07  
    0.11000     1.057e-07    1.696e-07  
    0.12000     1.073e-07    1.592e-07  
    0.13000     1.088e-07    1.537e-07  
    0.14000     1.103e-07    1.511e-07  
    0.15000     1.118e-07    1.502e-07  
    0.16000     1.133e-07    1.503e-07  
    0.17000     1.148e-07    1.512e-07  
    0.18000     1.164e-07    1.524e-07  
    0.19000     1.179e-07    1.540e-07  
    0.20000     1.195e-07    1.557e-07  
    0.21000     1.211e-07    1.576e-07  
    0.22000     1.227e-07    1.595e-07  
    0.23000     1.243e-07    1.614e-07  
    0.24000     1.260e-07    1.634e-07  
    0.25000     1.277e-07    1.655e-07  
    0.26000     1.294e-07    1.675e-07  
    0.27000     1.311e-07    1.695e-07  
    0.28000     1.328e-07    1.716e-07  
    0.29000     1.346e-07    1.737e-07  
    0.30000     1.363e-07    1.757e-07  
    0.31000     1.381e-07    1.778e-07  
    0.32000     1.400e-07    1.799e-07  
    0.33000     1.418e-07    1.819e-07  
    0.34000     1.437e-07    1.840e-07  
    0.35000     1.456e-07    1.861e-07  
    0.36000     1.475e-07    1.882e-07  
    0.37000     1.494e-07    1.903e-07  
    0.38000     1.513e-07    1.924e-07  
    0.39000     1.533e-07    1.945e-07  
    0.40000     1.553e-07    1.967e-07  
    0.41000     1.573e-07    1.988e-07  
    0.42000     1.593e-07    2.009e-07  
    0.43000     1.614e-07    2.031e-07  
    0.44000     1.634e-07    2.052e-07  
    0.45000     1.655e-07    2.074e-07  
    0.46000     1.677e-07    2.096e-07  
    0.47000     1.698e-07    2.118e-07  
    0.48000     1.720e-07    2.140e-07  
    0.49000     1.741e-07    2.162e-07  
    0.50000     1.764e-07    2.184e-07  
    0.51000     1.786e-07    2.207e-07  
    0.52000     1.808e-07    2.229e-07  
    0.53000     1.831e-07    2.252e-07  
    0.54000     1.854e-07    2.275e-07  
    0.55000     1.877e-07    2.298e-07  
    0.56000     1.901e-07    2.321e-07  
    0.57000     1.924e-07    2.344e-07  
    0.58000     1.948e-07    2.367e-07  
    0.59000     1.972e-07    2.391e-07  
    0.60000     1.997e-07    2.415e-07  
    0.61000     2.021e-07    2.438e-07  
    0.62000     2.046e-07    2.462e-07  
    0.63000     2.071e-07    2.486e-07  
    0.64000     2.097e-07    2.511e-07  
    0.65000     2.122e-07    2.535e-07  
    0.66000     2.148e-07    2.560e-07  
    0.67000     2.174e-07    2.584e-07  
    0.68000     2.201e-07    2.609e-07  
    0.69000     2.227e-07    2.634e-07  
    0.70000     2.254e-07    2.659e-07  
    0.71000     2.281e-07    2.685e-07  
    0.72000     2.309e-07    2.710e-07  
    0.73000     2.336e-07    2.736e-07  
    0.74000     2.364e-07    2.762e-07  
    0.75000     2.392e-07    2.788e-07  
    0.76000     2.421e-07    2.814e-07  
    0.77000     2.449e-07    2.840e-07  
    0.78000     2.478e-07    2.867e-07  
    0.79000     2.507e-07    2.893e-07  
    0.80000     2.537e-07    2.920e-07  
    0.81000     2.567e-07    2.947e-07  
    0.82000     2.597e-07    2.974e-07  
    0.83000     2.627e-07    3.001e-07  
    0.84000     2.657e-07    3.029e-07  
    0.85000     2.688e-07    3.057e-07  
    0.86000     2.719e-07    3.084e-07  
    0.87000     2.751e-07    3.112e-07  
    0.88000     2.783e-07    3.141e-07  
    0.89000     2.814e-07    3.169e-07  
    0.90000     2.847e-07    3.198e-07  
    0.91000     2.879e-07    3.226e-07  
    0.92000     2.912e-07    3.255e-07  
    0.93000     2.945e-07    3.284e-07  
    0.94000     2.979e-07    3.313e-07  
    0.95000     3.012e-07    3.343e-07  
    0.96000     3.046e-07    3.373e-07  
    0.97000     3.081e-07    3.402e-07  
    0.98000     3.115e-07    3.432e-07  
    0.99000     3.150e-07    3.462e-07  
    1.00000     3.186e-07    3.493e-07  
y
-----------------------------------------------
 ******  
 *sample netlist for bsim-mg

  ******  dc transfer curves tnom=  25.000 temp=  27.000 *****

   *** source        0:vgs =    0.5000        ***

x

        volt    param        param      
                    ids          gds    
    0.         -1.103e-10      0.       
  1.0000e-02    7.624e-07   -3.187e-05  
  2.0000e-02    1.342e-06    7.625e-05  
  3.0000e-02    1.759e-06    5.799e-05  
  4.0000e-02    2.041e-06    4.163e-05  
  5.0000e-02    2.226e-06    2.822e-05  
  6.0000e-02    2.349e-06    1.855e-05  
  7.0000e-02    2.434e-06    1.228e-05  
  8.0000e-02    2.496e-06    8.469e-06  
  9.0000e-02    2.544e-06    6.206e-06  
    0.10000     2.585e-06    4.860e-06  
    0.11000     2.620e-06    4.047e-06  
    0.12000     2.653e-06    3.546e-06  
    0.13000     2.683e-06    3.233e-06  
    0.14000     2.712e-06    3.034e-06  
    0.15000     2.740e-06    2.906e-06  
    0.16000     2.768e-06    2.825e-06  
    0.17000     2.795e-06    2.774e-06  
    0.18000     2.823e-06    2.743e-06  
    0.19000     2.850e-06    2.727e-06  
    0.20000     2.877e-06    2.719e-06  
    0.21000     2.904e-06    2.718e-06  
    0.22000     2.932e-06    2.723e-06  
    0.23000     2.959e-06    2.730e-06  
    0.24000     2.987e-06    2.740e-06  
    0.25000     3.014e-06    2.752e-06  
    0.26000     3.042e-06    2.765e-06  
    0.27000     3.070e-06    2.779e-06  
    0.28000     3.098e-06    2.794e-06  
    0.29000     3.126e-06    2.810e-06  
    0.30000     3.155e-06    2.825e-06  
    0.31000     3.183e-06    2.842e-06  
    0.32000     3.212e-06    2.858e-06  
    0.33000     3.241e-06    2.875e-06  
    0.34000     3.270e-06    2.891e-06  
    0.35000     3.299e-06    2.908e-06  
    0.36000     3.329e-06    2.925e-06  
    0.37000     3.358e-06    2.942e-06  
    0.38000     3.388e-06    2.959e-06  
    0.39000     3.418e-06    2.976e-06  
    0.40000     3.448e-06    2.993e-06  
    0.41000     3.478e-06    3.010e-06  
    0.42000     3.509e-06    3.027e-06  
    0.43000     3.539e-06    3.044e-06  
    0.44000     3.570e-06    3.061e-06  
    0.45000     3.601e-06    3.078e-06  
    0.46000     3.632e-06    3.095e-06  
    0.47000     3.664e-06    3.112e-06  
    0.48000     3.695e-06    3.129e-06  
    0.49000     3.727e-06    3.146e-06  
    0.50000     3.758e-06    3.164e-06  
    0.51000     3.790e-06    3.181e-06  
    0.52000     3.823e-06    3.198e-06  
    0.53000     3.855e-06    3.215e-06  
    0.54000     3.887e-06    3.232e-06  
    0.55000     3.920e-06    3.249e-06  
    0.56000     3.953e-06    3.266e-06  
    0.57000     3.986e-06    3.283e-06  
    0.58000     4.019e-06    3.300e-06  
    0.59000     4.052e-06    3.318e-06  
    0.60000     4.086e-06    3.335e-06  
    0.61000     4.120e-06    3.352e-06  
    0.62000     4.153e-06    3.369e-06  
    0.63000     4.188e-06    3.386e-06  
    0.64000     4.222e-06    3.404e-06  
    0.65000     4.256e-06    3.421e-06  
    0.66000     4.291e-06    3.438e-06  
    0.67000     4.325e-06    3.455e-06  
    0.68000     4.360e-06    3.473e-06  
    0.69000     4.395e-06    3.490e-06  
    0.70000     4.431e-06    3.507e-06  
    0.71000     4.466e-06    3.524e-06  
    0.72000     4.502e-06    3.542e-06  
    0.73000     4.537e-06    3.559e-06  
    0.74000     4.573e-06    3.577e-06  
    0.75000     4.609e-06    3.594e-06  
    0.76000     4.646e-06    3.611e-06  
    0.77000     4.682e-06    3.629e-06  
    0.78000     4.719e-06    3.646e-06  
    0.79000     4.756e-06    3.664e-06  
    0.80000     4.793e-06    3.681e-06  
    0.81000     4.830e-06    3.699e-06  
    0.82000     4.867e-06    3.716e-06  
    0.83000     4.905e-06    3.734e-06  
    0.84000     4.942e-06    3.751e-06  
    0.85000     4.980e-06    3.769e-06  
    0.86000     5.018e-06    3.787e-06  
    0.87000     5.056e-06    3.804e-06  
    0.88000     5.095e-06    3.822e-06  
    0.89000     5.133e-06    3.840e-06  
    0.90000     5.172e-06    3.857e-06  
    0.91000     5.211e-06    3.875e-06  
    0.92000     5.250e-06    3.893e-06  
    0.93000     5.290e-06    3.911e-06  
[...]
    0.96000     6.445e-06    2.619e-06  
    0.97000     6.472e-06    2.623e-06  
    0.98000     6.498e-06    2.627e-06  
    0.99000     6.524e-06    2.632e-06  
    1.00000     6.551e-06    2.636e-06  
y
-----------------------------------------------
 ******  
 *sample netlist for bsim-mg

  ******  dc transfer curves tnom=  25.000 temp= 100.000 *****

   *** source        0:vgs =    0.7000        ***

x

        volt    param        param      
                    ids          gds    
    0.         -3.876e-09      0.       
  1.0000e-02    1.375e-06   -6.555e-04  
  2.0000e-02    2.668e-06    1.379e-04  
  3.0000e-02    3.876e-06    1.293e-04  
  4.0000e-02    4.996e-06    1.207e-04  
  5.0000e-02    6.030e-06    1.121e-04  
  6.0000e-02    6.976e-06    1.033e-04  
  7.0000e-02    7.834e-06    9.459e-05  
  8.0000e-02    8.608e-06    8.588e-05  
  9.0000e-02    9.299e-06    7.733e-05  
    0.10000     9.911e-06    6.908e-05  
    0.11000     1.045e-05    6.125e-05  
    0.12000     1.092e-05    5.397e-05  
    0.13000     1.134e-05    4.731e-05  
    0.14000     1.170e-05    4.132e-05  
    0.15000     1.201e-05    3.603e-05  
    0.16000     1.229e-05    3.141e-05  
    0.17000     1.253e-05    2.742e-05  
    0.18000     1.274e-05    2.401e-05  
    0.19000     1.292e-05    2.112e-05  
    0.20000     1.309e-05    1.868e-05  
    0.21000     1.324e-05    1.663e-05  
    0.22000     1.337e-05    1.490e-05  
    0.23000     1.350e-05    1.346e-05  
    0.24000     1.361e-05    1.224e-05  
    0.25000     1.371e-05    1.122e-05  
    0.26000     1.381e-05    1.036e-05  
    0.27000     1.390e-05    9.630e-06  
    0.28000     1.398e-05    9.014e-06  
    0.29000     1.406e-05    8.490e-06  
    0.30000     1.414e-05    8.044e-06  
    0.31000     1.421e-05    7.663e-06  
    0.32000     1.428e-05    7.335e-06  
    0.33000     1.435e-05    7.053e-06  
    0.34000     1.442e-05    6.810e-06  
    0.35000     1.448e-05    6.599e-06  
    0.36000     1.454e-05    6.416e-06  
    0.37000     1.461e-05    6.256e-06  
    0.38000     1.467e-05    6.117e-06  
    0.39000     1.472e-05    5.995e-06  
    0.40000     1.478e-05    5.887e-06  
    0.41000     1.484e-05    5.793e-06  
    0.42000     1.490e-05    5.709e-06  
    0.43000     1.495e-05    5.636e-06  
    0.44000     1.501e-05    5.570e-06  
    0.45000     1.506e-05    5.512e-06  
    0.46000     1.512e-05    5.461e-06  
    0.47000     1.517e-05    5.415e-06  
    0.48000     1.522e-05    5.374e-06  
    0.49000     1.528e-05    5.337e-06  
    0.50000     1.533e-05    5.305e-06  
    0.51000     1.538e-05    5.275e-06  
    0.52000     1.543e-05    5.249e-06  
    0.53000     1.549e-05    5.226e-06  
    0.54000     1.554e-05    5.205e-06  
    0.55000     1.559e-05    5.186e-06  
    0.56000     1.564e-05    5.170e-06  
    0.57000     1.569e-05    5.155e-06  
    0.58000     1.574e-05    5.141e-06  
    0.59000     1.579e-05    5.129e-06  
    0.60000     1.585e-05    5.119e-06  
    0.61000     1.590e-05    5.109e-06  
    0.62000     1.595e-05    5.101e-06  
    0.63000     1.600e-05    5.093e-06  
    0.64000     1.605e-05    5.087e-06  
    0.65000     1.610e-05    5.081e-06  
    0.66000     1.615e-05    5.076e-06  
    0.67000     1.620e-05    5.071e-06  
    0.68000     1.625e-05    5.068e-06  
    0.69000     1.630e-05    5.064e-06  
    0.70000     1.635e-05    5.062e-06  
    0.71000     1.640e-05    5.060e-06  
    0.72000     1.645e-05    5.058e-06  
    0.73000     1.650e-05    5.056e-06  
    0.74000     1.656e-05    5.055e-06  
    0.75000     1.661e-05    5.055e-06  
    0.76000     1.666e-05    5.054e-06  
    0.77000     1.671e-05    5.054e-06  
    0.78000     1.676e-05    5.054e-06  
    0.79000     1.681e-05    5.055e-06  
    0.80000     1.686e-05    5.055e-06  
    0.81000     1.691e-05    5.056e-06  
    0.82000     1.696e-05    5.057e-06  
    0.83000     1.701e-05    5.058e-06  
    0.84000     1.706e-05    5.060e-06  
    0.85000     1.711e-05    5.061e-06  
    0.86000     1.716e-05    5.063e-06  
    0.87000     1.721e-05    5.065e-06  
    0.88000     1.726e-05    5.067e-06  
    0.89000     1.731e-05    5.069e-06  
    0.90000     1.737e-05    5.071e-06  
    0.91000     1.742e-05    5.074e-06  
    0.92000     1.747e-05    5.076e-06  
    0.93000     1.752e-05    5.078e-06  
    0.94000     1.757e-05    5.081e-06  
    0.95000     1.762e-05    5.084e-06  
    0.96000     1.767e-05    5.086e-06  
    0.97000     1.772e-05    5.089e-06  
    0.98000     1.777e-05    5.092e-06  
    0.99000     1.782e-05    5.095e-06  
    1.00000     1.787e-05    5.098e-06  
y
-----------------------------------------------
 ******  
 *sample netlist for bsim-mg

  ******  dc transfer curves tnom=  25.000 temp= 100.000 *****

   *** source        0:vgs =    0.8000        ***

x

        volt    param        param      
                    ids          gds    
    0.         -7.315e-09      0.       
  1.0000e-02    2.322e-06   -1.788e-03  
  2.0000e-02    4.549e-06    2.330e-04  
  3.0000e-02    6.674e-06    2.227e-04  
  4.0000e-02    8.695e-06    2.124e-04  
  5.0000e-02    1.061e-05    2.021e-04  
  6.0000e-02    1.242e-05    1.916e-04  
  7.0000e-02    1.412e-05    1.810e-04  
  8.0000e-02    1.572e-05    1.702e-04  
  9.0000e-02    1.720e-05    1.594e-04  
    0.10000     1.858e-05    1.486e-04  
    0.11000     1.985e-05    1.378e-04  
    0.12000     2.102e-05    1.272e-04  
    0.13000     2.209e-05    1.169e-04  
    0.14000     2.306e-05    1.069e-04  
    0.15000     2.395e-05    9.742e-05  
    0.16000     2.475e-05    8.846e-05  
    0.17000     2.547e-05    8.010e-05  
    0.18000     2.613e-05    7.236e-05  
    0.19000     2.671e-05    6.527e-05  
    0.20000     2.724e-05    5.883e-05  
    0.21000     2.772e-05    5.303e-05  
    0.22000     2.815e-05    4.783e-05  
    0.23000     2.855e-05    4.320e-05  
    0.24000     2.890e-05    3.910e-05  
    0.25000     2.922e-05    3.547e-05  
    0.26000     2.952e-05    3.228e-05  
    0.27000     2.979e-05    2.948e-05  
    0.28000     3.004e-05    2.702e-05  
    0.29000     3.027e-05    2.486e-05  
    0.30000     3.048e-05    2.298e-05  
    0.31000     3.068e-05    2.132e-05  
    0.32000     3.086e-05    1.987e-05  
    0.33000     3.104e-05    1.860e-05  
    0.34000     3.120e-05    1.748e-05  
    0.35000     3.136e-05    1.649e-05  
    0.36000     3.151e-05    1.562e-05  
    0.37000     3.165e-05    1.486e-05  
    0.38000     3.179e-05    1.418e-05  
    0.39000     3.192e-05    1.358e-05  
    0.40000     3.204e-05    1.304e-05  
    0.41000     3.216e-05    1.257e-05  
    0.42000     3.228e-05    1.215e-05  
    0.43000     3.240e-05    1.177e-05  
    0.44000     3.251e-05    1.143e-05  
    0.45000     3.262e-05    1.113e-05  
    0.46000     3.272e-05    1.085e-05  
    0.47000     3.283e-05    1.061e-05  
    0.48000     3.293e-05    1.039e-05  
    0.49000     3.303e-05    1.019e-05  
    0.50000     3.313e-05    1.001e-05  
    0.51000     3.322e-05    9.842e-06  
    0.52000     3.332e-05    9.693e-06  
    0.53000     3.341e-05    9.558e-06  
    0.54000     3.351e-05    9.435e-06  
    0.55000     3.360e-05    9.322e-06  
    0.56000     3.369e-05    9.219e-06  
    0.57000     3.378e-05    9.125e-06  
    0.58000     3.387e-05    9.039e-06  
    0.59000     3.396e-05    8.960e-06  
    0.60000     3.405e-05    8.888e-06  
    0.61000     3.413e-05    8.822e-06  
    0.62000     3.422e-05    8.760e-06  
    0.63000     3.431e-05    8.704e-06  
    0.64000     3.439e-05    8.652e-06  
    0.65000     3.448e-05    8.604e-06  
    0.66000     3.457e-05    8.560e-06  
    0.67000     3.465e-05    8.519e-06  
    0.68000     3.473e-05    8.481e-06  
    0.69000     3.482e-05    8.446e-06  
    0.70000     3.490e-05    8.414e-06  
    0.71000     3.499e-05    8.384e-06  
    0.72000     3.507e-05    8.356e-06  
    0.73000     3.515e-05    8.330e-06  
    0.74000     3.524e-05    8.306e-06  
    0.75000     3.532e-05    8.284e-06  
    0.76000     3.540e-05    8.263e-06  
    0.77000     3.548e-05    8.244e-06  
    0.78000     3.556e-05    8.226e-06  
    0.79000     3.565e-05    8.210e-06  
    0.80000     3.573e-05    8.194e-06  
    0.81000     3.581e-05    8.180e-06  
    0.82000     3.589e-05    8.167e-06  
    0.83000     3.597e-05    8.154e-06  
    0.84000     3.605e-05    8.143e-06  
    0.85000     3.614e-05    8.132e-06  
    0.86000     3.622e-05    8.122e-06  
    0.87000     3.630e-05    8.113e-06  
    0.88000     3.638e-05    8.105e-06  
    0.89000     3.646e-05    8.097e-06  
    0.90000     3.654e-05    8.089e-06  
    0.91000     3.662e-05    8.083e-06  
    0.92000     3.670e-05    8.076e-06  
    0.93000     3.678e-05    8.071e-06  
    0.94000     3.686e-05    8.065e-06  
    0.95000     3.694e-05    8.060e-06  
    0.96000     3.702e-05    8.056e-06  
    0.97000     3.710e-05    8.052e-06  
    0.98000     3.719e-05    8.048e-06  
    0.99000     3.727e-05    8.044e-06  
    1.00000     3.735e-05    8.041e-06  
y
-----------------------------------------------
 ******  
 *sample netlist for bsim-mg

  ******  dc transfer curves tnom=  25.000 temp= 100.000 *****

   *** source        0:vgs =    0.9000        ***

x

        volt    param        param      
                    ids          gds    
    0.         -1.212e-08      0.       
  1.0000e-02    3.392e-06   -3.736e-03  
  2.0000e-02    6.684e-06    3.404e-04  
  3.0000e-02    9.865e-06    3.292e-04  
  4.0000e-02    1.293e-05    3.181e-04  
  5.0000e-02    1.589e-05    3.068e-04  
  6.0000e-02    1.872e-05    2.953e-04  
  7.0000e-02    2.144e-05    2.837e-04  
  8.0000e-02    2.404e-05    2.718e-04  
  9.0000e-02    2.652e-05    2.598e-04  
    0.10000     2.887e-05    2.477e-04  
    0.11000     3.110e-05    2.354e-04  
    0.12000     3.321e-05    2.230e-04  
    0.13000     3.519e-05    2.106e-04  
    0.14000     3.705e-05    1.983e-04  
    0.15000     3.879e-05    1.862e-04  
    0.16000     4.042e-05    1.742e-04  
    0.17000     4.193e-05    1.626e-04  
    0.18000     4.334e-05    1.513e-04  
    0.19000     4.464e-05    1.404e-04  
    0.20000     4.584e-05    1.301e-04  
    0.21000     4.695e-05    1.202e-04  
    0.22000     4.797e-05    1.110e-04  
    0.23000     4.891e-05    1.023e-04  
    0.24000     4.978e-05    9.419e-05  
    0.25000     5.058e-05    8.670e-05  
    0.26000     5.131e-05    7.979e-05  
    0.27000     5.199e-05    7.345e-05  
    0.28000     5.261e-05    6.765e-05  
    0.29000     5.319e-05    6.237e-05  
    0.30000     5.372e-05    5.757e-05  
    0.31000     5.421e-05    5.322e-05  
    0.32000     5.467e-05    4.929e-05  
    0.33000     5.510e-05    4.573e-05  
    0.34000     5.549e-05    4.253e-05  
    0.35000     5.586e-05    3.964e-05  
    0.36000     5.621e-05    3.704e-05  
    0.37000     5.654e-05    3.469e-05  
    0.38000     5.684e-05    3.259e-05  
    0.39000     5.713e-05    3.069e-05  
    0.40000     5.741e-05    2.897e-05  
    0.41000     5.767e-05    2.743e-05  
    0.42000     5.791e-05    2.604e-05  
    0.43000     5.815e-05    2.478e-05  
    0.44000     5.838e-05    2.365e-05  
    0.45000     5.859e-05    2.262e-05  
    0.46000     5.880e-05    2.169e-05  
    0.47000     5.900e-05    2.085e-05  
    0.48000     5.920e-05    2.008e-05  
    0.49000     5.939e-05    1.938e-05  
    0.50000     5.957e-05    1.875e-05  
    0.51000     5.974e-05    1.817e-05  
    0.52000     5.992e-05    1.765e-05  
    0.53000     6.008e-05    1.716e-05  
    0.54000     6.025e-05    1.672e-05  
    0.55000     6.040e-05    1.632e-05  
    0.56000     6.056e-05    1.595e-05  
    0.57000     6.071e-05    1.561e-05  
    0.58000     6.086e-05    1.530e-05  
    0.59000     6.101e-05    1.501e-05  
    0.60000     6.116e-05    1.474e-05  
    0.61000     6.130e-05    1.450e-05  
    0.62000     6.144e-05    1.427e-05  
    0.63000     6.158e-05    1.406e-05  
    0.64000     6.172e-05    1.387e-05  
    0.65000     6.185e-05    1.369e-05  
    0.66000     6.198e-05    1.352e-05  
    0.67000     6.212e-05    1.337e-05  
    0.68000     6.225e-05    1.323e-05  
    0.69000     6.238e-05    1.309e-05  
    0.70000     6.251e-05    1.297e-05  
    0.71000     6.263e-05    1.285e-05  
    0.72000     6.276e-05    1.274e-05  
    0.73000     6.289e-05    1.264e-05  
    0.74000     6.301e-05    1.255e-05  
    0.75000     6.313e-05    1.246e-05  
    0.76000     6.326e-05    1.237e-05  
    0.77000     6.338e-05    1.230e-05  
    0.78000     6.350e-05    1.222e-05  
    0.79000     6.362e-05    1.216e-05  
    0.80000     6.374e-05    1.209e-05  
    0.81000     6.386e-05    1.203e-05  
    0.82000     6.398e-05    1.197e-05  
    0.83000     6.410e-05    1.192e-05  
    0.84000     6.422e-05    1.187e-05  
    0.85000     6.434e-05    1.182e-05  
    0.86000     6.445e-05    1.178e-05  
    0.87000     6.457e-05    1.174e-05  
    0.88000     6.469e-05    1.170e-05  
    0.89000     6.480e-05    1.166e-05  
    0.90000     6.492e-05    1.162e-05  
    0.91000     6.503e-05    1.159e-05  
    0.92000     6.515e-05    1.156e-05  
    0.93000     6.526e-05    1.153e-05  
    0.94000     6.538e-05    1.150e-05  
    0.95000     6.549e-05    1.147e-05  
    0.96000     6.561e-05    1.145e-05  
    0.97000     6.572e-05    1.142e-05  
    0.98000     6.584e-05    1.140e-05  
    0.99000     6.595e-05    1.138e-05  
    1.00000     6.606e-05    1.136e-05  
y
-----------------------------------------------
 ******  
 *sample netlist for bsim-mg

  ******  dc transfer curves tnom=  25.000 temp= 100.000 *****

   *** source        0:vgs =    1.0000        ***

x

        volt    param        param      
                    ids          gds    
    0.         -1.852e-08      0.       
  1.0000e-02    4.517e-06   -6.608e-03  
  2.0000e-02    8.938e-06    4.535e-04  
  3.0000e-02    1.324e-05    4.421e-04  
  4.0000e-02    1.743e-05    4.306e-04  
  5.0000e-02    2.150e-05    4.189e-04  
  6.0000e-02    2.545e-05    4.071e-04  
  7.0000e-02    2.928e-05    3.951e-04  
  8.0000e-02    3.299e-05    3.828e-04  
  9.0000e-02    3.656e-05    3.704e-04  
    0.10000     4.001e-05    3.577e-04  
    0.11000     4.333e-05    3.448e-04  
    0.12000     4.651e-05    3.317e-04  
    0.13000     4.956e-05    3.184e-04  
    0.14000     5.248e-05    3.051e-04  
    0.15000     5.526e-05    2.916e-04  
    0.16000     5.791e-05    2.782e-04  
    0.17000     6.042e-05    2.647e-04  
    0.18000     6.280e-05    2.514e-04  
    0.19000     6.506e-05    2.383e-04  
    0.20000     6.718e-05    2.253e-04  
    0.21000     6.919e-05    2.127e-04  
    0.22000     7.107e-05    2.003e-04  
    0.23000     7.284e-05    1.884e-04  
    0.24000     7.450e-05    1.769e-04  
    0.25000     7.605e-05    1.658e-04  
    0.26000     7.750e-05    1.553e-04  
    0.27000     7.886e-05    1.453e-04  
    0.28000     8.013e-05    1.358e-04  
    0.29000     8.131e-05    1.268e-04  
    0.30000     8.242e-05    1.184e-04  
    0.31000     8.345e-05    1.106e-04  
    0.32000     8.442e-05    1.032e-04  
    0.33000     8.532e-05    9.638e-05  
    0.34000     8.616e-05    9.003e-05  
    0.35000     8.695e-05    8.415e-05  
    0.36000     8.768e-05    7.871e-05  
    0.37000     8.837e-05    7.369e-05  
    0.38000     8.902e-05    6.907e-05  
    0.39000     8.963e-05    6.481e-05  
    0.40000     9.020e-05    6.090e-05  
    0.41000     9.074e-05    5.731e-05  
    0.42000     9.125e-05    5.401e-05  
    0.43000     9.174e-05    5.098e-05  
    0.44000     9.219e-05    4.820e-05  
    0.45000     9.263e-05    4.566e-05  
    0.46000     9.304e-05    4.332e-05  
    0.47000     9.343e-05    4.117e-05  
    0.48000     9.380e-05    3.921e-05  
    0.49000     9.416e-05    3.740e-05  
    0.50000     9.450e-05    3.574e-05  
    0.51000     9.483e-05    3.422e-05  
    0.52000     9.515e-05    3.281e-05  
    0.53000     9.545e-05    3.152e-05  
    0.54000     9.574e-05    3.033e-05  
    0.55000     9.602e-05    2.924e-05  
    0.56000     9.630e-05    2.823e-05  
    0.57000     9.656e-05    2.730e-05  
    0.58000     9.682e-05    2.644e-05  
    0.59000     9.707e-05    2.564e-05  
    0.60000     9.731e-05    2.490e-05  
    0.61000     9.754e-05    2.422e-05  
    0.62000     9.777e-05    2.359e-05  
    0.63000     9.800e-05    2.300e-05  
    0.64000     9.822e-05    2.246e-05  
    0.65000     9.843e-05    2.195e-05  
    0.66000     9.864e-05    2.148e-05  
    0.67000     9.885e-05    2.104e-05  
    0.68000     9.905e-05    2.063e-05  
    0.69000     9.925e-05    2.025e-05  
    0.70000     9.945e-05    1.990e-05  
    0.71000     9.964e-05    1.956e-05  
    0.72000     9.983e-05    1.925e-05  
    0.73000     1.000e-04    1.896e-05  
    0.74000     1.002e-04    1.869e-05  
    0.75000     1.004e-04    1.843e-05  
    0.76000     1.006e-04    1.820e-05  
    0.77000     1.007e-04    1.797e-05  
    0.78000     1.009e-04    1.776e-05  
    0.79000     1.011e-04    1.756e-05  
    0.80000     1.013e-04    1.737e-05  
    0.81000     1.014e-04    1.720e-05  
    0.82000     1.016e-04    1.703e-05  
    0.83000     1.018e-04    1.687e-05  
    0.84000     1.019e-04    1.673e-05  
    0.85000     1.021e-04    1.659e-05  
    0.86000     1.023e-04    1.646e-05  
    0.87000     1.024e-04    1.633e-05  
    0.88000     1.026e-04    1.621e-05  
    0.89000     1.027e-04    1.610e-05  
    0.90000     1.029e-04    1.600e-05  
    0.91000     1.031e-04    1.590e-05  
    0.92000     1.032e-04    1.580e-05  
    0.93000     1.034e-04    1.571e-05  
    0.94000     1.035e-04    1.563e-05  
    0.95000     1.037e-04    1.555e-05  
    0.96000     1.038e-04    1.547e-05  
    0.97000     1.040e-04    1.540e-05  
    0.98000     1.041e-04    1.533e-05  
    0.99000     1.043e-04    1.526e-05  
    1.00000     1.044e-04    1.520e-05  
y
-----------------------------------------------

          ***** job concluded
1****** HSPICE -- G-2012.06 32-BIT (May 27 2012) RHEL32 ******                  
 ******  
 *sample netlist for bsim-mg

  ******  job statistics summary tnom=  25.000 temp= 100.000 *****
  
  
 ******  Machine Information  ******
 CPU:
 model name	: Intel(R) Xeon(R) CPU E5-2643 0 @ 3.30GHz
 cpu MHz	: 3299.813
  
 OS:
 Linux version 2.6.32-573.7.1.el6.x86_64 (mockbuild@x86-031.build.eng.bos.redhat.com) (gcc version 4.4.7 20120313 (Red Hat 4.4.7-16) (GCC) ) #1 SMP Thu Sep 10 13:42:16 EDT 2015


  ******  HSPICE Threads Information  ******

  Command Line Threads Count :     1
  Available CPU Count        :     8
  Actual Threads Count       :     1


  ******  Circuit Statistics  ******
  # nodes       =       9 # elements   =       4
  # resistors   =       0 # capacitors =       0 # inductors   =       0
  # mutual_inds =       0 # vccs       =       0 # vcvs        =       0
  # cccs        =       0 # ccvs       =       0 # volt_srcs   =       3
  # curr_srcs   =       0 # diodes     =       0 # bjts        =       0
  # jfets       =       0 # mosfets    =       0 # U elements  =       0
  # T elements  =       0 # W elements =       0 # B elements  =       0
  # S elements  =       0 # P elements =       0 # va device   =       1
  # vector_srcs =       0 # N elements =       0


  ******  Runtime Statistics (seconds)  ******

  analysis           time    # points   tot. iter  conv.iter
  op point           0.00           1           0
  dc sweep           0.17        1111        2243
  readin             0.00
  errchk             0.06
  setup              0.00
  output             0.00


           peak memory used        119.28 megabytes
           total cpu time            0.24 seconds
           total elapsed time        0.24 seconds
           job started at     08:27:48 12/31/2015
           job ended   at     08:27:57 12/31/2015


 lic: Release hspice token(s) 
 lic: total license checkout elapse time:        0.21(s)
