 ****** HSPICE -- G-2012.06 32-BIT (May 27 2012) RHEL32 ******                  
  Copyright (C) 2012 Synopsys, Inc. All Rights Reserved.                        
  Unpublished-rights reserved under US copyright laws.
  This program is protected by law and is subject to the
  terms and conditions of the license agreement from Synopsys.
  Use of this program is your acceptance to be bound by the
  license agreement. HSPICE is the trademark of Synopsys, Inc.
  Input File: idvdpmos.sp                                                       
  Command line options: -hdlpath ../code -i idvdpmos.sp -o idvdpmos
 lic:  
 lic: FLEXlm: v10.8 
 lic: USER:   sourabh              HOSTNAME: bwrcr720-2.eecs.berkeley.edu 
 lic: HOSTID:                      PID:      14949 
 lic: Using FLEXlm license file: 
 lic: 1701@sunv40z-1.eecs.berkeley.edu 
 lic: Checkout 1 hspice 
 lic: License/Maintenance for hspice will expire on 18-nov-2016/2015.06 
 lic: 1(in_use)/50(total) FLOATING license(s) on SERVER sunv40z-1.eecs.berkeley.
 lic:   
 Init: read install configuration file: /tools/synopsys/hspice/G-2012.06/hspice/meta.cfg
 **info** *pvaI* Module (bsimcmg): 5 unexpanded port, 0 init, 2015 behav, 64 contrib, 49/3015 expr(s)

 **info** *pvaI* Resizing DB size for v count = 1

 **info** *pvaI* Resizing DB size for v count = 2

 **info** *pvaI*        Has DIS (PC SB), 5 afCount

 **info** *pvaI*        0 const-G and 0 const-C, Has switch branch.

 **info** *pvaI* Module (bsimcmg): generated 4 flow node(s) during compilation.

 **info** *pvaI* #### Total 762 line-size(s), 49 expr(s), 64 contr(s), 0 init(s), 2015 behav(s), 5 port(s)

 Loading pVA library idvdpmos.pvadir/pvaRTL_linux.so...
1****** HSPICE -- G-2012.06 32-BIT (May 27 2012) RHEL32 ******                  
 ******  
 *sample netlist for bsim-mg

  ******  circuit name directory
 circuit number to circuit name directory
   number circuitname                     definition         multiplier
        0 main circuit
        1 x1.                             bsimcmg(va)        1.00 
 **info** *pvaI* Creating Verilog-A module 'bsimcmg' for X1

  
      
 *****************************************************************
 ******  option summary
 ******
 runlvl  = 3         bypass  = 2         
  Opening plot unit= 15
 file=idvdpmos.pa0                                                             

 ******  
 *sample netlist for bsim-mg

  ******  dc transfer curves tnom=  25.000 temp= -55.000 *****

   *** source        0:vgs =    0.            ***

x

        volt    param        param      
                    ids         -gds    
    0.            0.           0.       
 -1.0000e-02    1.180e-16      0.       
 -2.0000e-02    6.679e-16    1.180e-14  
 -3.0000e-02    2.220e-15    5.499e-14  
 -4.0000e-02    5.451e-15    1.553e-13  
 -5.0000e-02    1.117e-14    3.230e-13  
 -6.0000e-02    2.032e-14    5.721e-13  
 -7.0000e-02    3.397e-14    9.145e-13  
 -8.0000e-02    5.335e-14    1.366e-12  
 -9.0000e-02    7.983e-14    1.938e-12  
   -0.10000     1.150e-13    2.648e-12  
   -0.11000     1.604e-13    3.512e-12  
   -0.12000     2.180e-13    4.544e-12  
   -0.13000     2.899e-13    5.763e-12  
   -0.14000     3.781e-13    7.183e-12  
   -0.15000     4.851e-13    8.823e-12  
   -0.16000     6.134e-13    1.070e-11  
   -0.17000     7.656e-13    1.283e-11  
   -0.18000     9.446e-13    1.522e-11  
   -0.19000     1.153e-12    1.790e-11  
   -0.20000     1.395e-12    2.088e-11  
   -0.21000     1.673e-12    2.418e-11  
   -0.22000     1.991e-12    2.780e-11  
   -0.23000     2.352e-12    3.177e-11  
   -0.24000     2.760e-12    3.609e-11  
   -0.25000     3.218e-12    4.078e-11  
   -0.26000     3.731e-12    4.584e-11  
   -0.27000     4.302e-12    5.129e-11  
   -0.28000     4.936e-12    5.712e-11  
   -0.29000     5.636e-12    6.336e-11  
   -0.30000     6.406e-12    6.999e-11  
   -0.31000     7.251e-12    7.703e-11  
   -0.32000     8.174e-12    8.447e-11  
   -0.33000     9.179e-12    9.231e-11  
   -0.34000     1.027e-11    1.005e-10  
   -0.35000     1.145e-11    1.092e-10  
   -0.36000     1.273e-11    1.182e-10  
   -0.37000     1.410e-11    1.276e-10  
   -0.38000     1.558e-11    1.373e-10  
   -0.39000     1.716e-11    1.474e-10  
   -0.40000     1.884e-11    1.579e-10  
   -0.41000     2.064e-11    1.686e-10  
   -0.42000     2.255e-11    1.797e-10  
   -0.43000     2.458e-11    1.910e-10  
   -0.44000     2.672e-11    2.027e-10  
   -0.45000     2.899e-11    2.145e-10  
   -0.46000     3.137e-11    2.266e-10  
   -0.47000     3.389e-11    2.388e-10  
   -0.48000     3.652e-11    2.512e-10  
   -0.49000     3.929e-11    2.638e-10  
   -0.50000     4.218e-11    2.765e-10  
   -0.51000     4.520e-11    2.892e-10  
   -0.52000     4.835e-11    3.021e-10  
   -0.53000     5.163e-11    3.150e-10  
   -0.54000     5.504e-11    3.278e-10  
   -0.55000     5.857e-11    3.407e-10  
   -0.56000     6.224e-11    3.536e-10  
   -0.57000     6.603e-11    3.663e-10  
   -0.58000     6.994e-11    3.790e-10  
   -0.59000     7.398e-11    3.916e-10  
   -0.60000     7.815e-11    4.041e-10  
   -0.61000     8.243e-11    4.164e-10  
   -0.62000     8.684e-11    4.285e-10  
   -0.63000     9.136e-11    4.405e-10  
   -0.64000     9.600e-11    4.522e-10  
   -0.65000     1.007e-10    4.638e-10  
   -0.66000     1.056e-10    4.751e-10  
   -0.67000     1.106e-10    4.862e-10  
   -0.68000     1.157e-10    4.970e-10  
   -0.69000     1.208e-10    5.075e-10  
   -0.70000     1.261e-10    5.178e-10  
   -0.71000     1.315e-10    5.278e-10  
   -0.72000     1.370e-10    5.376e-10  
   -0.73000     1.425e-10    5.470e-10  
   -0.74000     1.482e-10    5.562e-10  
   -0.75000     1.539e-10    5.650e-10  
   -0.76000     1.597e-10    5.736e-10  
   -0.77000     1.656e-10    5.818e-10  
   -0.78000     1.716e-10    5.898e-10  
   -0.79000     1.776e-10    5.975e-10  
   -0.80000     1.838e-10    6.048e-10  
   -0.81000     1.900e-10    6.119e-10  
   -0.82000     1.962e-10    6.187e-10  
   -0.83000     2.025e-10    6.253e-10  
   -0.84000     2.089e-10    6.315e-10  
   -0.85000     2.153e-10    6.375e-10  
   -0.86000     2.218e-10    6.432e-10  
   -0.87000     2.284e-10    6.486e-10  
   -0.88000     2.349e-10    6.539e-10  
   -0.89000     2.416e-10    6.588e-10  
   -0.90000     2.483e-10    6.635e-10  
   -0.91000     2.550e-10    6.680e-10  
   -0.92000     2.617e-10    6.722e-10  
   -0.93000     2.685e-10    6.763e-10  
   -0.94000     2.754e-10    6.801e-10  
   -0.95000     2.822e-10    6.837e-10  
   -0.96000     2.892e-10    6.871e-10  
   -0.97000     2.961e-10    6.904e-10  
   -0.98000     3.030e-10    6.934e-10  
   -0.99000     3.100e-10    6.963e-10  
   -1.00000     3.171e-10    6.990e-10  
y
-----------------------------------------------
 ******  
 *sample netlist for bsim-mg

  ******  dc transfer curves tnom=  25.000 temp= -55.000 *****

   *** source        0:vgs =   -0.1000        ***

x

        volt    param        param      
                    ids         -gds    
    0.         -5.338e-24      0.       
 -1.0000e-02    1.795e-15   -3.171e-08  
 -2.0000e-02    3.036e-15    1.795e-13  
 -3.0000e-02    4.309e-15    1.240e-13  
 -4.0000e-02    6.231e-15    1.273e-13  
 -5.0000e-02    9.399e-15    1.922e-13  
 -6.0000e-02    1.446e-14    3.168e-13  
 -7.0000e-02    2.211e-14    5.058e-13  
 -8.0000e-02    3.318e-14    7.657e-13  
 -9.0000e-02    4.859e-14    1.107e-12  
   -0.10000     6.940e-14    1.541e-12  
   -0.11000     9.682e-14    2.081e-12  
   -0.12000     1.322e-13    2.742e-12  
   -0.13000     1.769e-13    3.534e-12  
   -0.14000     2.327e-13    4.477e-12  
   -0.15000     3.014e-13    5.582e-12  
   -0.16000     3.849e-13    6.868e-12  
   -0.17000     4.852e-13    8.345e-12  
   -0.18000     6.047e-13    1.003e-11  
   -0.19000     7.457e-13    1.195e-11  
   -0.20000     9.108e-13    1.410e-11  
   -0.21000     1.103e-12    1.651e-11  
   -0.22000     1.324e-12    1.919e-11  
   -0.23000     1.578e-12    2.215e-11  
   -0.24000     1.868e-12    2.542e-11  
   -0.25000     2.197e-12    2.899e-11  
   -0.26000     2.568e-12    3.288e-11  
   -0.27000     2.985e-12    3.711e-11  
   -0.28000     3.451e-12    4.167e-11  
   -0.29000     3.969e-12    4.658e-11  
   -0.30000     4.544e-12    5.186e-11  
   -0.31000     5.179e-12    5.749e-11  
   -0.32000     5.878e-12    6.350e-11  
   -0.33000     6.644e-12    6.987e-11  
   -0.34000     7.481e-12    7.660e-11  
   -0.35000     8.393e-12    8.370e-11  
   -0.36000     9.383e-12    9.117e-11  
   -0.37000     1.045e-11    9.900e-11  
   -0.38000     1.161e-11    1.072e-10  
   -0.39000     1.286e-11    1.157e-10  
   -0.40000     1.419e-11    1.246e-10  
   -0.41000     1.563e-11    1.337e-10  
   -0.42000     1.716e-11    1.432e-10  
   -0.43000     1.879e-11    1.530e-10  
   -0.44000     2.052e-11    1.631e-10  
   -0.45000     2.236e-11    1.734e-10  
   -0.46000     2.431e-11    1.840e-10  
   -0.47000     2.637e-11    1.948e-10  
   -0.48000     2.854e-11    2.057e-10  
   -0.49000     3.082e-11    2.169e-10  
   -0.50000     3.322e-11    2.283e-10  
   -0.51000     3.573e-11    2.397e-10  
   -0.52000     3.836e-11    2.513e-10  
   -0.53000     4.111e-11    2.630e-10  
   -0.54000     4.397e-11    2.747e-10  
   -0.55000     4.695e-11    2.865e-10  
   -0.56000     5.005e-11    2.983e-10  
   -0.57000     5.327e-11    3.101e-10  
   -0.58000     5.661e-11    3.219e-10  
   -0.59000     6.006e-11    3.337e-10  
   -0.60000     6.363e-11    3.454e-10  
   -0.61000     6.732e-11    3.570e-10  
   -0.62000     7.112e-11    3.684e-10  
   -0.63000     7.503e-11    3.798e-10  
   -0.64000     7.905e-11    3.911e-10  
   -0.65000     8.318e-11    4.022e-10  
   -0.66000     8.742e-11    4.131e-10  
   -0.67000     9.176e-11    4.238e-10  
   -0.68000     9.621e-11    4.344e-10  
   -0.69000     1.008e-10    4.448e-10  
   -0.70000     1.054e-10    4.549e-10  
   -0.71000     1.102e-10    4.648e-10  
   -0.72000     1.150e-10    4.745e-10  
   -0.73000     1.199e-10    4.840e-10  
   -0.74000     1.249e-10    4.932e-10  
   -0.75000     1.301e-10    5.022e-10  
   -0.76000     1.352e-10    5.109e-10  
   -0.77000     1.405e-10    5.194e-10  
   -0.78000     1.459e-10    5.276e-10  
   -0.79000     1.513e-10    5.356e-10  
   -0.80000     1.568e-10    5.433e-10  
   -0.81000     1.624e-10    5.507e-10  
   -0.82000     1.681e-10    5.580e-10  
   -0.83000     1.738e-10    5.649e-10  
   -0.84000     1.795e-10    5.716e-10  
   -0.85000     1.854e-10    5.781e-10  
   -0.86000     1.913e-10    5.843e-10  
   -0.87000     1.973e-10    5.903e-10  
   -0.88000     2.033e-10    5.961e-10  
   -0.89000     2.093e-10    6.016e-10  
   -0.90000     2.155e-10    6.069e-10  
   -0.91000     2.216e-10    6.120e-10  
   -0.92000     2.278e-10    6.169e-10  
   -0.93000     2.341e-10    6.216e-10  
   -0.94000     2.404e-10    6.261e-10  
   -0.95000     2.468e-10    6.303e-10  
   -0.96000     2.531e-10    6.344e-10  
   -0.97000     2.596e-10    6.384e-10  
   -0.98000     2.660e-10    6.421e-10  
   -0.99000     2.725e-10    6.457e-10  
   -1.00000     2.790e-10    6.490e-10  
y
-----------------------------------------------
 ******  
 *sample netlist for bsim-mg

  ******  dc transfer curves tnom=  25.000 temp= -55.000 *****

   *** source        0:vgs =   -0.2000        ***

x

        volt    param        param      
                    ids         -gds    
    0.         -1.809e-21      0.       
 -1.0000e-02    3.004e-13   -2.790e-08  
 -2.0000e-02    4.686e-13    3.004e-11  
 -3.0000e-02    5.547e-13    1.682e-11  
 -4.0000e-02    5.988e-13    8.609e-12  
 -5.0000e-02    6.247e-13    4.416e-12  
 -6.0000e-02    6.433e-13    2.588e-12  
 -7.0000e-02    6.594e-13    1.855e-12  
 -8.0000e-02    6.754e-13    1.609e-12  
 -9.0000e-02    6.928e-13    1.605e-12  
   -0.10000     7.127e-13    1.741e-12  
   -0.11000     7.360e-13    1.987e-12  
   -0.12000     7.638e-13    2.332e-12  
   -0.13000     7.970e-13    2.776e-12  
   -0.14000     8.369e-13    3.324e-12  
   -0.15000     8.847e-13    3.988e-12  
   -0.16000     9.419e-13    4.782e-12  
   -0.17000     1.010e-12    5.716e-12  
   -0.18000     1.090e-12    6.802e-12  
   -0.19000     1.185e-12    8.056e-12  
   -0.20000     1.297e-12    9.491e-12  
   -0.21000     1.426e-12    1.112e-11  
   -0.22000     1.577e-12    1.297e-11  
   -0.23000     1.750e-12    1.504e-11  
   -0.24000     1.949e-12    1.734e-11  
   -0.25000     2.176e-12    1.991e-11  
   -0.26000     2.435e-12    2.273e-11  
   -0.27000     2.727e-12    2.583e-11  
   -0.28000     3.056e-12    2.922e-11  
   -0.29000     3.425e-12    3.292e-11  
   -0.30000     3.838e-12    3.691e-11  
   -0.31000     4.296e-12    4.123e-11  
   -0.32000     4.805e-12    4.587e-11  
   -0.33000     5.366e-12    5.084e-11  
   -0.34000     5.984e-12    5.615e-11  
   -0.35000     6.662e-12    6.178e-11  
   -0.36000     7.402e-12    6.776e-11  
   -0.37000     8.210e-12    7.408e-11  
   -0.38000     9.087e-12    8.072e-11  
   -0.39000     1.004e-11    8.771e-11  
   -0.40000     1.106e-11    9.502e-11  
   -0.41000     1.217e-11    1.027e-10  
   -0.42000     1.336e-11    1.106e-10  
   -0.43000     1.463e-11    1.188e-10  
   -0.44000     1.599e-11    1.274e-10  
   -0.45000     1.745e-11    1.362e-10  
   -0.46000     1.899e-11    1.452e-10  
   -0.47000     2.063e-11    1.546e-10  
   -0.48000     2.237e-11    1.641e-10  
   -0.49000     2.421e-11    1.739e-10  
   -0.50000     2.615e-11    1.839e-10  
   -0.51000     2.819e-11    1.940e-10  
   -0.52000     3.034e-11    2.043e-10  
   -0.53000     3.259e-11    2.148e-10  
   -0.54000     3.495e-11    2.253e-10  
   -0.55000     3.742e-11    2.360e-10  
   -0.56000     4.000e-11    2.467e-10  
   -0.57000     4.268e-11    2.575e-10  
   -0.58000     4.547e-11    2.683e-10  
   -0.59000     4.837e-11    2.792e-10  
   -0.60000     5.138e-11    2.901e-10  
   -0.61000     5.450e-11    3.009e-10  
   -0.62000     5.772e-11    3.117e-10  
   -0.63000     6.105e-11    3.224e-10  
   -0.64000     6.449e-11    3.331e-10  
   -0.65000     6.803e-11    3.437e-10  
   -0.66000     7.168e-11    3.542e-10  
   -0.67000     7.542e-11    3.645e-10  
   -0.68000     7.927e-11    3.748e-10  
   -0.69000     8.322e-11    3.848e-10  
   -0.70000     8.726e-11    3.948e-10  
   -0.71000     9.141e-11    4.046e-10  
   -0.72000     9.564e-11    4.142e-10  
   -0.73000     9.997e-11    4.236e-10  
   -0.74000     1.044e-10    4.328e-10  
   -0.75000     1.089e-10    4.419e-10  
   -0.76000     1.135e-10    4.507e-10  
   -0.77000     1.182e-10    4.593e-10  
   -0.78000     1.229e-10    4.677e-10  
   -0.79000     1.278e-10    4.760e-10  
   -0.80000     1.327e-10    4.840e-10  
   -0.81000     1.377e-10    4.917e-10  
   -0.82000     1.427e-10    4.993e-10  
   -0.83000     1.479e-10    5.067e-10  
   -0.84000     1.531e-10    5.138e-10  
   -0.85000     1.584e-10    5.208e-10  
   -0.86000     1.637e-10    5.274e-10  
   -0.87000     1.691e-10    5.339e-10  
   -0.88000     1.746e-10    5.402e-10  
   -0.89000     1.801e-10    5.463e-10  
   -0.90000     1.857e-10    5.522e-10  
   -0.91000     1.913e-10    5.579e-10  
   -0.92000     1.970e-10    5.634e-10  
   -0.93000     2.027e-10    5.687e-10  
   -0.94000     2.085e-10    5.738e-10  
   -0.95000     2.143e-10    5.787e-10  
   -0.96000     2.202e-10    5.835e-10  
   -0.97000     2.262e-10    5.880e-10  
   -0.98000     2.321e-10    5.925e-10  
   -0.99000     2.381e-10    5.967e-10  
   -1.00000     2.442e-10    6.008e-10  
y
-----------------------------------------------
 ******  
 *sample netlist for bsim-mg

  ******  dc transfer curves tnom=  25.000 temp= -55.000 *****

   *** source        0:vgs =   -0.3000        ***

x

        volt    param        param      
                    ids         -gds    
    0.         -4.599e-19      0.       
 -1.0000e-02    5.091e-11   -2.442e-08  
 -2.0000e-02    7.937e-11    5.091e-09  
 -3.0000e-02    9.388e-11    2.847e-09  
 -4.0000e-02    1.012e-10    1.451e-09  
 -5.0000e-02    1.053e-10    7.326e-10  
 -6.0000e-02    1.080e-10    4.116e-10  
 -7.0000e-02    1.101e-10    2.715e-10  
 -8.0000e-02    1.119e-10    2.078e-10  
 -9.0000e-02    1.135e-10    1.772e-10  
   -0.10000     1.151e-10    1.619e-10  
   -0.11000     1.166e-10    1.542e-10  
   -0.12000     1.180e-10    1.505e-10  
   -0.13000     1.195e-10    1.490e-10  
   -0.14000     1.210e-10    1.488e-10  
   -0.15000     1.225e-10    1.493e-10  
   -0.16000     1.240e-10    1.504e-10  
   -0.17000     1.256e-10    1.519e-10  
   -0.18000     1.271e-10    1.536e-10  
   -0.19000     1.287e-10    1.555e-10  
   -0.20000     1.303e-10    1.576e-10  
   -0.21000     1.319e-10    1.599e-10  
   -0.22000     1.336e-10    1.624e-10  
   -0.23000     1.353e-10    1.651e-10  
   -0.24000     1.370e-10    1.679e-10  
   -0.25000     1.387e-10    1.710e-10  
   -0.26000     1.405e-10    1.742e-10  
   -0.27000     1.423e-10    1.777e-10  
   -0.28000     1.442e-10    1.815e-10  
   -0.29000     1.461e-10    1.854e-10  
   -0.30000     1.480e-10    1.897e-10  
   -0.31000     1.500e-10    1.942e-10  
   -0.32000     1.520e-10    1.989e-10  
   -0.33000     1.541e-10    2.040e-10  
   -0.34000     1.563e-10    2.094e-10  
   -0.35000     1.585e-10    2.150e-10  
   -0.36000     1.608e-10    2.210e-10  
   -0.37000     1.631e-10    2.273e-10  
   -0.38000     1.655e-10    2.339e-10  
   -0.39000     1.680e-10    2.408e-10  
   -0.40000     1.705e-10    2.480e-10  
   -0.41000     1.732e-10    2.556e-10  
   -0.42000     1.759e-10    2.634e-10  
   -0.43000     1.787e-10    2.716e-10  
   -0.44000     1.816e-10    2.801e-10  
   -0.45000     1.846e-10    2.888e-10  
   -0.46000     1.876e-10    2.979e-10  
   -0.47000     1.908e-10    3.072e-10  
   -0.48000     1.941e-10    3.168e-10  
   -0.49000     1.974e-10    3.266e-10  
   -0.50000     2.009e-10    3.367e-10  
   -0.51000     2.045e-10    3.470e-10  
   -0.52000     2.082e-10    3.575e-10  
   -0.53000     2.120e-10    3.682e-10  
   -0.54000     2.159e-10    3.791e-10  
   -0.55000     2.199e-10    3.901e-10  
   -0.56000     2.240e-10    4.012e-10  
   -0.57000     2.282e-10    4.125e-10  
   -0.58000     2.326e-10    4.239e-10  
   -0.59000     2.371e-10    4.354e-10  
   -0.60000     2.416e-10    4.469e-10  
   -0.61000     2.463e-10    4.585e-10  
   -0.62000     2.512e-10    4.701e-10  
   -0.63000     2.561e-10    4.818e-10  
   -0.64000     2.611e-10    4.934e-10  
   -0.65000     2.663e-10    5.050e-10  
   -0.66000     2.716e-10    5.166e-10  
   -0.67000     2.770e-10    5.282e-10  
   -0.68000     2.825e-10    5.396e-10  
   -0.69000     2.881e-10    5.511e-10  
   -0.70000     2.939e-10    5.624e-10  
   -0.71000     2.997e-10    5.736e-10  
   -0.72000     3.057e-10    5.848e-10  
   -0.73000     3.117e-10    5.958e-10  
   -0.74000     3.179e-10    6.067e-10  
   -0.75000     3.242e-10    6.174e-10  
   -0.76000     3.306e-10    6.280e-10  
   -0.77000     3.371e-10    6.385e-10  
   -0.78000     3.436e-10    6.488e-10  
   -0.79000     3.503e-10    6.590e-10  
   -0.80000     3.571e-10    6.690e-10  
   -0.81000     3.640e-10    6.788e-10  
   -0.82000     3.710e-10    6.885e-10  
   -0.83000     3.781e-10    6.980e-10  
   -0.84000     3.852e-10    7.073e-10  
   -0.85000     3.925e-10    7.165e-10  
   -0.86000     3.998e-10    7.255e-10  
   -0.87000     4.073e-10    7.343e-10  
   -0.88000     4.148e-10    7.430e-10  
   -0.89000     4.224e-10    7.514e-10  
   -0.90000     4.300e-10    7.597e-10  
   -0.91000     4.378e-10    7.678e-10  
   -0.92000     4.456e-10    7.758e-10  
   -0.93000     4.536e-10    7.836e-10  
   -0.94000     4.615e-10    7.913e-10  
   -0.95000     4.696e-10    7.988e-10  
   -0.96000     4.777e-10    8.061e-10  
   -0.97000     4.859e-10    8.133e-10  
   -0.98000     4.942e-10    8.203e-10  
   -0.99000     5.025e-10    8.272e-10  
   -1.00000     5.110e-10    8.339e-10  
y
-----------------------------------------------
 ******  
 *sample netlist for bsim-mg

  ******  dc transfer curves tnom=  25.000 temp= -55.000 *****

   *** source        0:vgs =   -0.4000        ***

x

        volt    param        param      
                    ids         -gds    
    0.         -1.037e-16      0.       
 -1.0000e-02    8.594e-09   -5.110e-08  
 -2.0000e-02    1.340e-08    8.594e-07  
 -3.0000e-02    1.585e-08    4.809e-07  
 -4.0000e-02    1.708e-08    2.449e-07  
 -5.0000e-02    1.777e-08    1.232e-07  
 -6.0000e-02    1.822e-08    6.859e-08  
 -7.0000e-02    1.855e-08    4.465e-08  
 -8.0000e-02    1.883e-08    3.365e-08  
 -9.0000e-02    1.909e-08    2.828e-08  
   -0.10000     1.933e-08    2.551e-08  
   -0.11000     1.956e-08    2.403e-08  
   -0.12000     1.979e-08    2.323e-08  
   -0.13000     2.002e-08    2.281e-08  
   -0.14000     2.024e-08    2.261e-08  
   -0.15000     2.047e-08    2.253e-08  
   -0.16000     2.069e-08    2.254e-08  
   -0.17000     2.092e-08    2.260e-08  
   -0.18000     2.115e-08    2.269e-08  
   -0.19000     2.138e-08    2.280e-08  
   -0.20000     2.161e-08    2.293e-08  
   -0.21000     2.184e-08    2.307e-08  
   -0.22000     2.207e-08    2.321e-08  
   -0.23000     2.231e-08    2.336e-08  
   -0.24000     2.255e-08    2.351e-08  
   -0.25000     2.278e-08    2.366e-08  
   -0.26000     2.302e-08    2.382e-08  
   -0.27000     2.327e-08    2.397e-08  
   -0.28000     2.351e-08    2.413e-08  
   -0.29000     2.375e-08    2.429e-08  
   -0.30000     2.400e-08    2.445e-08  
   -0.31000     2.425e-08    2.461e-08  
   -0.32000     2.450e-08    2.477e-08  
   -0.33000     2.475e-08    2.493e-08  
   -0.34000     2.500e-08    2.509e-08  
   -0.35000     2.525e-08    2.525e-08  
   -0.36000     2.551e-08    2.541e-08  
   -0.37000     2.577e-08    2.557e-08  
   -0.38000     2.603e-08    2.574e-08  
   -0.39000     2.629e-08    2.590e-08  
   -0.40000     2.655e-08    2.607e-08  
   -0.41000     2.681e-08    2.623e-08  
   -0.42000     2.708e-08    2.640e-08  
   -0.43000     2.735e-08    2.657e-08  
   -0.44000     2.761e-08    2.674e-08  
   -0.45000     2.788e-08    2.691e-08  
   -0.46000     2.816e-08    2.708e-08  
   -0.47000     2.843e-08    2.725e-08  
   -0.48000     2.871e-08    2.742e-08  
   -0.49000     2.899e-08    2.759e-08  
   -0.50000     2.926e-08    2.776e-08  
   -0.51000     2.955e-08    2.794e-08  
   -0.52000     2.983e-08    2.811e-08  
   -0.53000     3.011e-08    2.829e-08  
   -0.54000     3.040e-08    2.847e-08  
   -0.55000     3.069e-08    2.864e-08  
   -0.56000     3.098e-08    2.882e-08  
   -0.57000     3.127e-08    2.900e-08  
   -0.58000     3.156e-08    2.918e-08  
   -0.59000     3.186e-08    2.936e-08  
   -0.60000     3.216e-08    2.954e-08  
   -0.61000     3.246e-08    2.973e-08  
   -0.62000     3.276e-08    2.991e-08  
   -0.63000     3.306e-08    3.009e-08  
   -0.64000     3.336e-08    3.028e-08  
   -0.65000     3.367e-08    3.046e-08  
   -0.66000     3.398e-08    3.065e-08  
   -0.67000     3.429e-08    3.084e-08  
   -0.68000     3.460e-08    3.102e-08  
   -0.69000     3.491e-08    3.121e-08  
   -0.70000     3.523e-08    3.140e-08  
   -0.71000     3.555e-08    3.159e-08  
   -0.72000     3.587e-08    3.178e-08  
   -0.73000     3.619e-08    3.197e-08  
   -0.74000     3.651e-08    3.217e-08  
   -0.75000     3.684e-08    3.236e-08  
   -0.76000     3.717e-08    3.255e-08  
   -0.77000     3.750e-08    3.275e-08  
   -0.78000     3.783e-08    3.294e-08  
   -0.79000     3.816e-08    3.314e-08  
   -0.80000     3.850e-08    3.333e-08  
   -0.81000     3.883e-08    3.353e-08  
   -0.82000     3.917e-08    3.373e-08  
   -0.83000     3.951e-08    3.392e-08  
   -0.84000     3.986e-08    3.412e-08  
   -0.85000     4.020e-08    3.432e-08  
   -0.86000     4.055e-08    3.452e-08  
   -0.87000     4.090e-08    3.472e-08  
   -0.88000     4.125e-08    3.492e-08  
   -0.89000     4.160e-08    3.513e-08  
   -0.90000     4.196e-08    3.533e-08  
   -0.91000     4.232e-08    3.553e-08  
   -0.92000     4.268e-08    3.574e-08  
   -0.93000     4.304e-08    3.594e-08  
   -0.94000     4.340e-08    3.614e-08  
   -0.95000     4.377e-08    3.635e-08  
   -0.96000     4.413e-08    3.656e-08  
   -0.97000     4.450e-08    3.677e-08  
   -0.98000     4.487e-08    3.697e-08  
   -0.99000     4.525e-08    3.718e-08  
   -1.00000     4.562e-08    3.739e-08  
y
-----------------------------------------------
 ******  
 *sample netlist for bsim-mg

  ******  dc transfer curves tnom=  25.000 temp= -55.000 *****

   *** source        0:vgs =   -0.5000        ***

x

        volt    param        param      
                    ids         -gds    
    0.         -1.655e-14      0.       
 -1.0000e-02    1.092e-06   -4.562e-06  
 -2.0000e-02    1.774e-06    1.092e-04  
 -3.0000e-02    2.155e-06    6.816e-05  
 -4.0000e-02    2.357e-06    3.806e-05  
 -5.0000e-02    2.470e-06    2.022e-05  
 -6.0000e-02    2.541e-06    1.130e-05  
 -7.0000e-02    2.591e-06    7.084e-06  
 -8.0000e-02    2.631e-06    5.048e-06  
 -9.0000e-02    2.666e-06    4.010e-06  
   -0.10000     2.697e-06    3.450e-06  
   -0.11000     2.726e-06    3.132e-06  
   -0.12000     2.755e-06    2.943e-06  
   -0.13000     2.782e-06    2.829e-06  
   -0.14000     2.809e-06    2.757e-06  
   -0.15000     2.836e-06    2.713e-06  
   -0.16000     2.863e-06    2.685e-06  
   -0.17000     2.890e-06    2.668e-06  
   -0.18000     2.916e-06    2.659e-06  
   -0.19000     2.943e-06    2.654e-06  
   -0.20000     2.969e-06    2.653e-06  
   -0.21000     2.996e-06    2.655e-06  
   -0.22000     3.022e-06    2.659e-06  
   -0.23000     3.049e-06    2.664e-06  
   -0.24000     3.076e-06    2.670e-06  
   -0.25000     3.103e-06    2.676e-06  
   -0.26000     3.130e-06    2.684e-06  
   -0.27000     3.157e-06    2.691e-06  
   -0.28000     3.184e-06    2.699e-06  
   -0.29000     3.211e-06    2.708e-06  
   -0.30000     3.238e-06    2.716e-06  
   -0.31000     3.265e-06    2.725e-06  
   -0.32000     3.293e-06    2.734e-06  
   -0.33000     3.320e-06    2.743e-06  
   -0.34000     3.348e-06    2.752e-06  
   -0.35000     3.376e-06    2.761e-06  
   -0.36000     3.403e-06    2.770e-06  
   -0.37000     3.431e-06    2.780e-06  
   -0.38000     3.459e-06    2.789e-06  
   -0.39000     3.487e-06    2.798e-06  
   -0.40000     3.516e-06    2.808e-06  
   -0.41000     3.544e-06    2.817e-06  
   -0.42000     3.572e-06    2.827e-06  
   -0.43000     3.601e-06    2.836e-06  
   -0.44000     3.629e-06    2.846e-06  
   -0.45000     3.658e-06    2.856e-06  
   -0.46000     3.687e-06    2.865e-06  
   -0.47000     3.716e-06    2.875e-06  
   -0.48000     3.744e-06    2.885e-06  
   -0.49000     3.773e-06    2.894e-06  
   -0.50000     3.803e-06    2.904e-06  
   -0.51000     3.832e-06    2.914e-06  
   -0.52000     3.861e-06    2.924e-06  
   -0.53000     3.891e-06    2.933e-06  
   -0.54000     3.920e-06    2.943e-06  
   -0.55000     3.950e-06    2.953e-06  
   -0.56000     3.980e-06    2.963e-06  
   -0.57000     4.009e-06    2.973e-06  
   -0.58000     4.039e-06    2.983e-06  
   -0.59000     4.069e-06    2.993e-06  
   -0.60000     4.099e-06    3.003e-06  
   -0.61000     4.130e-06    3.013e-06  
   -0.62000     4.160e-06    3.023e-06  
   -0.63000     4.190e-06    3.033e-06  
   -0.64000     4.221e-06    3.043e-06  
   -0.65000     4.252e-06    3.053e-06  
   -0.66000     4.282e-06    3.063e-06  
   -0.67000     4.313e-06    3.073e-06  
   -0.68000     4.344e-06    3.083e-06  
   -0.69000     4.375e-06    3.093e-06  
   -0.70000     4.406e-06    3.103e-06  
   -0.71000     4.437e-06    3.113e-06  
   -0.72000     4.469e-06    3.123e-06  
   -0.73000     4.500e-06    3.134e-06  
   -0.74000     4.532e-06    3.144e-06  
   -0.75000     4.563e-06    3.154e-06  
   -0.76000     4.595e-06    3.164e-06  
   -0.77000     4.627e-06    3.174e-06  
   -0.78000     4.659e-06    3.185e-06  
   -0.79000     4.691e-06    3.195e-06  
   -0.80000     4.723e-06    3.205e-06  
   -0.81000     4.755e-06    3.216e-06  
   -0.82000     4.788e-06    3.226e-06  
   -0.83000     4.820e-06    3.236e-06  
   -0.84000     4.853e-06    3.247e-06  
   -0.85000     4.885e-06    3.257e-06  
   -0.86000     4.918e-06    3.267e-06  
   -0.87000     4.951e-06    3.278e-06  
   -0.88000     4.984e-06    3.288e-06  
   -0.89000     5.017e-06    3.299e-06  
   -0.90000     5.050e-06    3.309e-06  
   -0.91000     5.084e-06    3.320e-06  
   -0.92000     5.117e-06    3.330e-06  
   -0.93000     5.151e-06    3.341e-06  
   -0.94000     5.184e-06    3.351e-06  
   -0.95000     5.218e-06    3.362e-06  
   -0.96000     5.252e-06    3.372e-06  
   -0.97000     5.286e-06    3.383e-06  
   -0.98000     5.320e-06    3.394e-06  
   -0.99000     5.354e-06    3.404e-06  
   -1.00000     5.388e-06    3.415e-06  
y
-----------------------------------------------
 ******  
 *sample netlist for bsim-mg

  ******  dc transfer curves tnom=  25.000 temp= -55.000 *****

   *** source        0:vgs =   -0.6000        ***

x

        volt    param        param      
                    ids         -gds    
    0.         -2.283e-13      0.       
 -1.0000e-02    1.157e-05   -5.388e-04  
 -2.0000e-02    2.165e-05    1.157e-03  
 -3.0000e-02    3.012e-05    1.008e-03  
 -4.0000e-02    3.690e-05    8.463e-04  
 -5.0000e-02    4.208e-05    6.780e-04  
 -6.0000e-02    4.591e-05    5.184e-04  
 -7.0000e-02    4.869e-05    3.826e-04  
 -8.0000e-02    5.072e-05    2.780e-04  
 -9.0000e-02    5.223e-05    2.030e-04  
   -0.10000     5.339e-05    1.513e-04  
   -0.11000     5.431e-05    1.162e-04  
   -0.12000     5.507e-05    9.234e-05  
   -0.13000     5.572e-05    7.598e-05  
   -0.14000     5.628e-05    6.459e-05  
   -0.15000     5.679e-05    5.652e-05  
   -0.16000     5.726e-05    5.070e-05  
   -0.17000     5.769e-05    4.643e-05  
   -0.18000     5.810e-05    4.325e-05  
   -0.19000     5.849e-05    4.084e-05  
   -0.20000     5.886e-05    3.899e-05  
   -0.21000     5.923e-05    3.755e-05  
   -0.22000     5.958e-05    3.642e-05  
   -0.23000     5.993e-05    3.553e-05  
   -0.24000     6.027e-05    3.481e-05  
   -0.25000     6.061e-05    3.422e-05  
   -0.26000     6.094e-05    3.375e-05  
   -0.27000     6.127e-05    3.336e-05  
   -0.28000     6.160e-05    3.303e-05  
   -0.29000     6.193e-05    3.277e-05  
   -0.30000     6.225e-05    3.254e-05  
   -0.31000     6.257e-05    3.235e-05  
   -0.32000     6.289e-05    3.219e-05  
   -0.33000     6.321e-05    3.206e-05  
   -0.34000     6.353e-05    3.194e-05  
   -0.35000     6.385e-05    3.185e-05  
   -0.36000     6.417e-05    3.177e-05  
   -0.37000     6.448e-05    3.170e-05  
   -0.38000     6.480e-05    3.164e-05  
   -0.39000     6.511e-05    3.159e-05  
   -0.40000     6.543e-05    3.154e-05  
   -0.41000     6.574e-05    3.151e-05  
   -0.42000     6.606e-05    3.148e-05  
   -0.43000     6.637e-05    3.145e-05  
   -0.44000     6.669e-05    3.143e-05  
   -0.45000     6.700e-05    3.142e-05  
   -0.46000     6.731e-05    3.140e-05  
   -0.47000     6.763e-05    3.139e-05  
   -0.48000     6.794e-05    3.139e-05  
   -0.49000     6.826e-05    3.138e-05  
   -0.50000     6.857e-05    3.138e-05  
   -0.51000     6.888e-05    3.138e-05  
   -0.52000     6.920e-05    3.138e-05  
   -0.53000     6.951e-05    3.138e-05  
   -0.54000     6.982e-05    3.139e-05  
   -0.55000     7.014e-05    3.139e-05  
   -0.56000     7.045e-05    3.140e-05  
   -0.57000     7.077e-05    3.141e-05  
   -0.58000     7.108e-05    3.142e-05  
   -0.59000     7.140e-05    3.143e-05  
   -0.60000     7.171e-05    3.144e-05  
   -0.61000     7.202e-05    3.145e-05  
   -0.62000     7.234e-05    3.146e-05  
   -0.63000     7.265e-05    3.147e-05  
   -0.64000     7.297e-05    3.149e-05  
   -0.65000     7.328e-05    3.150e-05  
   -0.66000     7.360e-05    3.152e-05  
   -0.67000     7.392e-05    3.153e-05  
   -0.68000     7.423e-05    3.155e-05  
   -0.69000     7.455e-05    3.156e-05  
   -0.70000     7.486e-05    3.158e-05  
   -0.71000     7.518e-05    3.159e-05  
   -0.72000     7.549e-05    3.161e-05  
   -0.73000     7.581e-05    3.163e-05  
   -0.74000     7.613e-05    3.164e-05  
   -0.75000     7.644e-05    3.166e-05  
   -0.76000     7.676e-05    3.168e-05  
   -0.77000     7.708e-05    3.170e-05  
   -0.78000     7.740e-05    3.171e-05  
   -0.79000     7.771e-05    3.173e-05  
   -0.80000     7.803e-05    3.175e-05  
   -0.81000     7.835e-05    3.177e-05  
   -0.82000     7.867e-05    3.179e-05  
   -0.83000     7.899e-05    3.181e-05  
   -0.84000     7.930e-05    3.183e-05  
   -0.85000     7.962e-05    3.184e-05  
   -0.86000     7.994e-05    3.186e-05  
   -0.87000     8.026e-05    3.188e-05  
   -0.88000     8.058e-05    3.190e-05  
   -0.89000     8.090e-05    3.192e-05  
   -0.90000     8.122e-05    3.194e-05  
   -0.91000     8.154e-05    3.196e-05  
   -0.92000     8.186e-05    3.198e-05  
   -0.93000     8.218e-05    3.200e-05  
   -0.94000     8.250e-05    3.202e-05  
   -0.95000     8.282e-05    3.204e-05  
   -0.96000     8.314e-05    3.206e-05  
   -0.97000     8.346e-05    3.208e-05  
   -0.98000     8.378e-05    3.210e-05  
   -0.99000     8.410e-05    3.212e-05  
   -1.00000     8.443e-05    3.214e-05  
y
-----------------------------------------------
 ******  
 *sample netlist for bsim-mg

  ******  dc transfer curves tnom=  25.000 temp= -55.000 *****

   *** source        0:vgs =   -0.7000        ***

x

        volt    param        param      
                    ids         -gds    
    0.         -7.183e-13      0.       
 -1.0000e-02    2.494e-05   -8.443e-03  
 -2.0000e-02    4.860e-05    2.494e-03  
 -3.0000e-02    7.082e-05    2.366e-03  
 -4.0000e-02    9.142e-05    2.222e-03  
 -5.0000e-02    1.102e-04    2.060e-03  
 -6.0000e-02    1.271e-04    1.881e-03  
 -7.0000e-02    1.420e-04    1.687e-03  
 -8.0000e-02    1.548e-04    1.485e-03  
 -9.0000e-02    1.657e-04    1.283e-03  
   -0.10000     1.749e-04    1.092e-03  
   -0.11000     1.826e-04    9.187e-04  
   -0.12000     1.890e-04    7.673e-04  
   -0.13000     1.943e-04    6.392e-04  
   -0.14000     1.988e-04    5.332e-04  
   -0.15000     2.025e-04    4.468e-04  
   -0.16000     2.057e-04    3.771e-04  
   -0.17000     2.085e-04    3.211e-04  
   -0.18000     2.109e-04    2.762e-04  
   -0.19000     2.130e-04    2.402e-04  
   -0.20000     2.149e-04    2.112e-04  
   -0.21000     2.166e-04    1.878e-04  
   -0.22000     2.181e-04    1.688e-04  
   -0.23000     2.195e-04    1.533e-04  
   -0.24000     2.208e-04    1.405e-04  
   -0.25000     2.220e-04    1.300e-04  
   -0.26000     2.232e-04    1.213e-04  
   -0.27000     2.243e-04    1.140e-04  
   -0.28000     2.253e-04    1.079e-04  
   -0.29000     2.263e-04    1.027e-04  
   -0.30000     2.272e-04    9.833e-05  
   -0.31000     2.281e-04    9.458e-05  
   -0.32000     2.290e-04    9.137e-05  
   -0.33000     2.299e-04    8.861e-05  
   -0.34000     2.307e-04    8.622e-05  
   -0.35000     2.315e-04    8.414e-05  
   -0.36000     2.323e-04    8.233e-05  
   -0.37000     2.331e-04    8.075e-05  
   -0.38000     2.339e-04    7.935e-05  
   -0.39000     2.347e-04    7.812e-05  
   -0.40000     2.354e-04    7.703e-05  
   -0.41000     2.362e-04    7.607e-05  
   -0.42000     2.369e-04    7.521e-05  
   -0.43000     2.377e-04    7.444e-05  
   -0.44000     2.384e-04    7.376e-05  
   -0.45000     2.391e-04    7.314e-05  
   -0.46000     2.399e-04    7.258e-05  
   -0.47000     2.406e-04    7.208e-05  
   -0.48000     2.413e-04    7.163e-05  
   -0.49000     2.420e-04    7.122e-05  
   -0.50000     2.427e-04    7.084e-05  
   -0.51000     2.434e-04    7.050e-05  
   -0.52000     2.441e-04    7.019e-05  
   -0.53000     2.448e-04    6.991e-05  
   -0.54000     2.455e-04    6.965e-05  
   -0.55000     2.462e-04    6.941e-05  
   -0.56000     2.469e-04    6.919e-05  
   -0.57000     2.476e-04    6.899e-05  
   -0.58000     2.483e-04    6.881e-05  
   -0.59000     2.489e-04    6.864e-05  
   -0.60000     2.496e-04    6.848e-05  
   -0.61000     2.503e-04    6.833e-05  
   -0.62000     2.510e-04    6.820e-05  
   -0.63000     2.517e-04    6.807e-05  
   -0.64000     2.523e-04    6.796e-05  
   -0.65000     2.530e-04    6.785e-05  
   -0.66000     2.537e-04    6.775e-05  
   -0.67000     2.544e-04    6.765e-05  
   -0.68000     2.550e-04    6.757e-05  
   -0.69000     2.557e-04    6.748e-05  
   -0.70000     2.564e-04    6.741e-05  
   -0.71000     2.571e-04    6.734e-05  
   -0.72000     2.577e-04    6.727e-05  
   -0.73000     2.584e-04    6.721e-05  
   -0.74000     2.591e-04    6.715e-05  
   -0.75000     2.598e-04    6.710e-05  
   -0.76000     2.604e-04    6.704e-05  
   -0.77000     2.611e-04    6.700e-05  
   -0.78000     2.618e-04    6.695e-05  
   -0.79000     2.624e-04    6.691e-05  
   -0.80000     2.631e-04    6.687e-05  
   -0.81000     2.638e-04    6.683e-05  
   -0.82000     2.644e-04    6.680e-05  
   -0.83000     2.651e-04    6.676e-05  
   -0.84000     2.658e-04    6.673e-05  
   -0.85000     2.664e-04    6.670e-05  
   -0.86000     2.671e-04    6.668e-05  
   -0.87000     2.678e-04    6.665e-05  
   -0.88000     2.684e-04    6.663e-05  
   -0.89000     2.691e-04    6.660e-05  
   -0.90000     2.698e-04    6.658e-05  
   -0.91000     2.704e-04    6.656e-05  
   -0.92000     2.711e-04    6.654e-05  
   -0.93000     2.718e-04    6.653e-05  
   -0.94000     2.724e-04    6.651e-05  
   -0.95000     2.731e-04    6.649e-05  
   -0.96000     2.738e-04    6.648e-05  
   -0.97000     2.744e-04    6.647e-05  
   -0.98000     2.751e-04    6.645e-05  
   -0.99000     2.757e-04    6.644e-05  
   -1.00000     2.764e-04    6.643e-05  
y
-----------------------------------------------
 ******  
 *sample netlist for bsim-mg

  ******  dc transfer curves tnom=  25.000 temp= -55.000 *****

   *** source        0:vgs =   -0.8000        ***

x

        volt    param        param      
                    ids         -gds    
    0.         -1.507e-12      0.       
 -1.0000e-02    3.536e-05   -2.764e-02  
 -2.0000e-02    6.979e-05    3.536e-03  
 -3.0000e-02    1.032e-04    3.443e-03  
 -4.0000e-02    1.354e-04    3.338e-03  
 -5.0000e-02    1.662e-04    3.220e-03  
 -6.0000e-02    1.956e-04    3.087e-03  
 -7.0000e-02    2.234e-04    2.938e-03  
 -8.0000e-02    2.493e-04    2.773e-03  
 -9.0000e-02    2.733e-04    2.594e-03  
   -0.10000     2.953e-04    2.402e-03  
   -0.11000     3.153e-04    2.202e-03  
   -0.12000     3.333e-04    1.999e-03  
   -0.13000     3.494e-04    1.800e-03  
   -0.14000     3.637e-04    1.608e-03  
   -0.15000     3.763e-04    1.429e-03  
   -0.16000     3.875e-04    1.264e-03  
   -0.17000     3.973e-04    1.115e-03  
   -0.18000     4.060e-04    9.829e-04  
   -0.19000     4.136e-04    8.661e-04  
   -0.20000     4.204e-04    7.642e-04  
   -0.21000     4.264e-04    6.758e-04  
   -0.22000     4.317e-04    5.994e-04  
   -0.23000     4.365e-04    5.336e-04  
   -0.24000     4.408e-04    4.771e-04  
   -0.25000     4.446e-04    4.286e-04  
   -0.26000     4.481e-04    3.868e-04  
   -0.27000     4.513e-04    3.509e-04  
   -0.28000     4.543e-04    3.200e-04  
   -0.29000     4.570e-04    2.934e-04  
   -0.30000     4.595e-04    2.703e-04  
   -0.31000     4.618e-04    2.503e-04  
   -0.32000     4.640e-04    2.329e-04  
   -0.33000     4.660e-04    2.178e-04  
   -0.34000     4.680e-04    2.045e-04  
   -0.35000     4.698e-04    1.930e-04  
   -0.36000     4.715e-04    1.828e-04  
   -0.37000     4.732e-04    1.738e-04  
   -0.38000     4.748e-04    1.659e-04  
   -0.39000     4.763e-04    1.589e-04  
   -0.40000     4.778e-04    1.526e-04  
   -0.41000     4.792e-04    1.471e-04  
   -0.42000     4.806e-04    1.421e-04  
   -0.43000     4.819e-04    1.377e-04  
   -0.44000     4.832e-04    1.337e-04  
   -0.45000     4.845e-04    1.301e-04  
   -0.46000     4.857e-04    1.269e-04  
   -0.47000     4.869e-04    1.240e-04  
   -0.48000     4.881e-04    1.214e-04  
   -0.49000     4.893e-04    1.190e-04  
   -0.50000     4.904e-04    1.169e-04  
   -0.51000     4.916e-04    1.149e-04  
   -0.52000     4.927e-04    1.131e-04  
   -0.53000     4.938e-04    1.114e-04  
   -0.54000     4.949e-04    1.099e-04  
   -0.55000     4.959e-04    1.086e-04  
   -0.56000     4.970e-04    1.073e-04  
   -0.57000     4.981e-04    1.061e-04  
   -0.58000     4.991e-04    1.051e-04  
   -0.59000     5.001e-04    1.041e-04  
   -0.60000     5.011e-04    1.032e-04  
   -0.61000     5.022e-04    1.023e-04  
   -0.62000     5.032e-04    1.015e-04  
   -0.63000     5.042e-04    1.008e-04  
   -0.64000     5.052e-04    1.001e-04  
   -0.65000     5.062e-04    9.951e-05  
   -0.66000     5.071e-04    9.893e-05  
   -0.67000     5.081e-04    9.838e-05  
   -0.68000     5.091e-04    9.787e-05  
   -0.69000     5.101e-04    9.740e-05  
   -0.70000     5.110e-04    9.695e-05  
   -0.71000     5.120e-04    9.654e-05  
   -0.72000     5.129e-04    9.614e-05  
   -0.73000     5.139e-04    9.578e-05  
   -0.74000     5.149e-04    9.543e-05  
   -0.75000     5.158e-04    9.511e-05  
   -0.76000     5.167e-04    9.480e-05  
   -0.77000     5.177e-04    9.451e-05  
   -0.78000     5.186e-04    9.424e-05  
   -0.79000     5.196e-04    9.399e-05  
   -0.80000     5.205e-04    9.374e-05  
   -0.81000     5.214e-04    9.351e-05  
   -0.82000     5.224e-04    9.330e-05  
   -0.83000     5.233e-04    9.309e-05  
   -0.84000     5.242e-04    9.290e-05  
   -0.85000     5.251e-04    9.271e-05  
   -0.86000     5.261e-04    9.254e-05  
   -0.87000     5.270e-04    9.237e-05  
   -0.88000     5.279e-04    9.221e-05  
   -0.89000     5.288e-04    9.206e-05  
   -0.90000     5.298e-04    9.192e-05  
   -0.91000     5.307e-04    9.178e-05  
   -0.92000     5.316e-04    9.165e-05  
   -0.93000     5.325e-04    9.152e-05  
   -0.94000     5.334e-04    9.140e-05  
   -0.95000     5.343e-04    9.129e-05  
   -0.96000     5.352e-04    9.118e-05  
   -0.97000     5.361e-04    9.108e-05  
   -0.98000     5.371e-04    9.098e-05  
   -0.99000     5.380e-04    9.088e-05  
   -1.00000     5.389e-04    9.079e-05  
y
-----------------------------------------------
 ******  
 *sample netlist for bsim-mg

  ******  dc transfer curves tnom=  25.000 temp= -55.000 *****

   *** source        0:vgs =   -0.9000        ***

x

        volt    param        param      
                    ids         -gds    
    0.         -2.661e-12      0.       
 -1.0000e-02    4.288e-05   -5.389e-02  
 -2.0000e-02    8.508e-05    4.288e-03  
 -3.0000e-02    1.265e-04    4.220e-03  
 -4.0000e-02    1.671e-04    4.145e-03  
 -5.0000e-02    2.068e-04    4.060e-03  
 -6.0000e-02    2.454e-04    3.965e-03  
 -7.0000e-02    2.827e-04    3.857e-03  
 -8.0000e-02    3.188e-04    3.737e-03  
 -9.0000e-02    3.533e-04    3.604e-03  
   -0.10000     3.863e-04    3.458e-03  
   -0.11000     4.176e-04    3.298e-03  
   -0.12000     4.471e-04    3.127e-03  
   -0.13000     4.747e-04    2.946e-03  
   -0.14000     5.003e-04    2.759e-03  
   -0.15000     5.241e-04    2.569e-03  
   -0.16000     5.460e-04    2.378e-03  
   -0.17000     5.662e-04    2.192e-03  
   -0.18000     5.845e-04    2.011e-03  
   -0.19000     6.013e-04    1.839e-03  
   -0.20000     6.166e-04    1.676e-03  
   -0.21000     6.304e-04    1.525e-03  
   -0.22000     6.430e-04    1.386e-03  
   -0.23000     6.544e-04    1.258e-03  
   -0.24000     6.648e-04    1.142e-03  
   -0.25000     6.742e-04    1.036e-03  
   -0.26000     6.828e-04    9.417e-04  
   -0.27000     6.906e-04    8.567e-04  
   -0.28000     6.977e-04    7.807e-04  
   -0.29000     7.042e-04    7.128e-04  
   -0.30000     7.102e-04    6.522e-04  
   -0.31000     7.157e-04    5.982e-04  
   -0.32000     7.208e-04    5.501e-04  
   -0.33000     7.255e-04    5.073e-04  
   -0.34000     7.298e-04    4.691e-04  
   -0.35000     7.339e-04    4.350e-04  
   -0.36000     7.376e-04    4.046e-04  
   -0.37000     7.412e-04    3.775e-04  
   -0.38000     7.445e-04    3.532e-04  
   -0.39000     7.476e-04    3.314e-04  
   -0.40000     7.505e-04    3.119e-04  
   -0.41000     7.533e-04    2.943e-04  
   -0.42000     7.560e-04    2.785e-04  
   -0.43000     7.585e-04    2.643e-04  
   -0.44000     7.609e-04    2.515e-04  
   -0.45000     7.632e-04    2.399e-04  
   -0.46000     7.654e-04    2.294e-04  
   -0.47000     7.675e-04    2.199e-04  
   -0.48000     7.695e-04    2.112e-04  
   -0.49000     7.715e-04    2.034e-04  
   -0.50000     7.734e-04    1.962e-04  
   -0.51000     7.752e-04    1.897e-04  
   -0.52000     7.770e-04    1.837e-04  
   -0.53000     7.787e-04    1.782e-04  
   -0.54000     7.804e-04    1.732e-04  
   -0.55000     7.821e-04    1.686e-04  
   -0.56000     7.837e-04    1.644e-04  
   -0.57000     7.852e-04    1.605e-04  
   -0.58000     7.868e-04    1.569e-04  
   -0.59000     7.883e-04    1.536e-04  
   -0.60000     7.898e-04    1.505e-04  
   -0.61000     7.912e-04    1.477e-04  
   -0.62000     7.926e-04    1.451e-04  
   -0.63000     7.940e-04    1.427e-04  
   -0.64000     7.954e-04    1.404e-04  
   -0.65000     7.968e-04    1.383e-04  
   -0.66000     7.981e-04    1.364e-04  
   -0.67000     7.995e-04    1.345e-04  
   -0.68000     8.008e-04    1.328e-04  
   -0.69000     8.021e-04    1.313e-04  
   -0.70000     8.033e-04    1.298e-04  
   -0.71000     8.046e-04    1.284e-04  
   -0.72000     8.059e-04    1.271e-04  
   -0.73000     8.071e-04    1.259e-04  
   -0.74000     8.084e-04    1.247e-04  
   -0.75000     8.096e-04    1.237e-04  
   -0.76000     8.108e-04    1.227e-04  
   -0.77000     8.120e-04    1.217e-04  
   -0.78000     8.132e-04    1.208e-04  
   -0.79000     8.144e-04    1.200e-04  
   -0.80000     8.156e-04    1.192e-04  
   -0.81000     8.168e-04    1.184e-04  
   -0.82000     8.179e-04    1.177e-04  
   -0.83000     8.191e-04    1.171e-04  
   -0.84000     8.203e-04    1.164e-04  
   -0.85000     8.214e-04    1.158e-04  
   -0.86000     8.226e-04    1.153e-04  
   -0.87000     8.237e-04    1.147e-04  
   -0.88000     8.248e-04    1.142e-04  
   -0.89000     8.260e-04    1.137e-04  
   -0.90000     8.271e-04    1.133e-04  
   -0.91000     8.282e-04    1.128e-04  
   -0.92000     8.293e-04    1.124e-04  
   -0.93000     8.305e-04    1.120e-04  
   -0.94000     8.316e-04    1.116e-04  
   -0.95000     8.327e-04    1.113e-04  
   -0.96000     8.338e-04    1.109e-04  
   -0.97000     8.349e-04    1.106e-04  
   -0.98000     8.360e-04    1.103e-04  
   -0.99000     8.371e-04    1.100e-04  
   -1.00000     8.382e-04    1.097e-04  
y
-----------------------------------------------
 ******  
 *sample netlist for bsim-mg

  ******  dc transfer curves tnom=  25.000 temp= -55.000 *****

   *** source        0:vgs =   -1.0000        ***

x

        volt    param        param      
                    ids         -gds    
    0.         -4.276e-12      0.       
 -1.0000e-02    4.831e-05   -8.382e-02  
 -2.0000e-02    9.613e-05    4.831e-03  
 -3.0000e-02    1.434e-04    4.782e-03  
 -4.0000e-02    1.900e-04    4.726e-03  
 -5.0000e-02    2.360e-04    4.664e-03  
 -6.0000e-02    2.811e-04    4.594e-03  
 -7.0000e-02    3.254e-04    4.515e-03  
 -8.0000e-02    3.687e-04    4.426e-03  
 -9.0000e-02    4.109e-04    4.328e-03  
   -0.10000     4.519e-04    4.220e-03  
   -0.11000     4.916e-04    4.100e-03  
   -0.12000     5.298e-04    3.970e-03  
   -0.13000     5.666e-04    3.829e-03  
   -0.14000     6.018e-04    3.678e-03  
   -0.15000     6.353e-04    3.518e-03  
   -0.16000     6.671e-04    3.350e-03  
   -0.17000     6.971e-04    3.178e-03  
   -0.18000     7.254e-04    3.003e-03  
   -0.19000     7.519e-04    2.827e-03  
   -0.20000     7.767e-04    2.652e-03  
   -0.21000     7.998e-04    2.480e-03  
   -0.22000     8.214e-04    2.313e-03  
   -0.23000     8.413e-04    2.152e-03  
   -0.24000     8.599e-04    1.999e-03  
   -0.25000     8.770e-04    1.853e-03  
   -0.26000     8.929e-04    1.716e-03  
   -0.27000     9.076e-04    1.587e-03  
   -0.28000     9.212e-04    1.468e-03  
   -0.29000     9.337e-04    1.357e-03  
   -0.30000     9.453e-04    1.254e-03  
   -0.31000     9.560e-04    1.160e-03  
   -0.32000     9.660e-04    1.073e-03  
   -0.33000     9.752e-04    9.938e-04  
   -0.34000     9.837e-04    9.212e-04  
   -0.35000     9.917e-04    8.548e-04  
   -0.36000     9.991e-04    7.943e-04  
   -0.37000     1.006e-03    7.391e-04  
   -0.38000     1.012e-03    6.889e-04  
   -0.39000     1.018e-03    6.430e-04  
   -0.40000     1.024e-03    6.013e-04  
   -0.41000     1.029e-03    5.633e-04  
   -0.42000     1.034e-03    5.286e-04  
   -0.43000     1.039e-03    4.970e-04  
   -0.44000     1.043e-03    4.682e-04  
   -0.45000     1.048e-03    4.419e-04  
   -0.46000     1.052e-03    4.178e-04  
   -0.47000     1.055e-03    3.958e-04  
   -0.48000     1.059e-03    3.757e-04  
   -0.49000     1.062e-03    3.572e-04  
   -0.50000     1.066e-03    3.403e-04  
   -0.51000     1.069e-03    3.248e-04  
   -0.52000     1.072e-03    3.106e-04  
   -0.53000     1.074e-03    2.975e-04  
   -0.54000     1.077e-03    2.854e-04  
   -0.55000     1.080e-03    2.743e-04  
   -0.56000     1.082e-03    2.640e-04  
   -0.57000     1.085e-03    2.545e-04  
   -0.58000     1.087e-03    2.458e-04  
   -0.59000     1.090e-03    2.377e-04  
   -0.60000     1.092e-03    2.302e-04  
   -0.61000     1.094e-03    2.232e-04  
   -0.62000     1.096e-03    2.168e-04  
   -0.63000     1.098e-03    2.108e-04  
   -0.64000     1.100e-03    2.052e-04  
   -0.65000     1.102e-03    2.000e-04  
   -0.66000     1.104e-03    1.952e-04  
   -0.67000     1.106e-03    1.907e-04  
   -0.68000     1.108e-03    1.865e-04  
   -0.69000     1.109e-03    1.825e-04  
   -0.70000     1.111e-03    1.789e-04  
   -0.71000     1.113e-03    1.754e-04  
   -0.72000     1.115e-03    1.722e-04  
   -0.73000     1.116e-03    1.692e-04  
   -0.74000     1.118e-03    1.663e-04  
   -0.75000     1.119e-03    1.637e-04  
   -0.76000     1.121e-03    1.612e-04  
   -0.77000     1.123e-03    1.588e-04  
   -0.78000     1.124e-03    1.566e-04  
   -0.79000     1.126e-03    1.545e-04  
   -0.80000     1.127e-03    1.525e-04  
   -0.81000     1.129e-03    1.507e-04  
   -0.82000     1.130e-03    1.489e-04  
   -0.83000     1.132e-03    1.473e-04  
   -0.84000     1.133e-03    1.457e-04  
   -0.85000     1.134e-03    1.442e-04  
   -0.86000     1.136e-03    1.428e-04  
   -0.87000     1.137e-03    1.415e-04  
   -0.88000     1.139e-03    1.402e-04  
   -0.89000     1.140e-03    1.390e-04  
   -0.90000     1.141e-03    1.379e-04  
   -0.91000     1.143e-03    1.368e-04  
   -0.92000     1.144e-03    1.358e-04  
   -0.93000     1.145e-03    1.348e-04  
   -0.94000     1.147e-03    1.339e-04  
   -0.95000     1.148e-03    1.330e-04  
   -0.96000     1.149e-03    1.322e-04  
   -0.97000     1.151e-03    1.314e-04  
   -0.98000     1.152e-03    1.306e-04  
   -0.99000     1.153e-03    1.299e-04  
   -1.00000     1.155e-03    1.292e-04  
y
-----------------------------------------------

          ***** job concluded
1****** HSPICE -- G-2012.06 32-BIT (May 27 2012) RHEL32 ******                  
 ******  
 *sample netlist for bsim-mg

  ******  job statistics summary tnom=  25.000 temp= -55.000 *****
  
  
 ******  Machine Information  ******
 CPU:
 model name	: Intel(R) Xeon(R) CPU E5-2643 0 @ 3.30GHz
 cpu MHz	: 3299.813
  
 OS:
 Linux version 2.6.32-573.7.1.el6.x86_64 (mockbuild@x86-031.build.eng.bos.redhat.com) (gcc version 4.4.7 20120313 (Red Hat 4.4.7-16) (GCC) ) #1 SMP Thu Sep 10 13:42:16 EDT 2015


  ******  HSPICE Threads Information  ******

  Command Line Threads Count :     1
  Available CPU Count        :     8
  Actual Threads Count       :     1


  ******  Circuit Statistics  ******
  # nodes       =       9 # elements   =       4
  # resistors   =       0 # capacitors =       0 # inductors   =       0
  # mutual_inds =       0 # vccs       =       0 # vcvs        =       0
  # cccs        =       0 # ccvs       =       0 # volt_srcs   =       3
  # curr_srcs   =       0 # diodes     =       0 # bjts        =       0
  # jfets       =       0 # mosfets    =       0 # U elements  =       0
  # T elements  =       0 # W elements =       0 # B elements  =       0
  # S elements  =       0 # P elements =       0 # va device   =       1
  # vector_srcs =       0 # N elements =       0


  ******  Runtime Statistics (seconds)  ******

  analysis           time    # points   tot. iter  conv.iter
  op point           0.00           1           0
  dc sweep           0.16        1111        2243
  readin             3.05
  errchk             0.06
  setup              0.00
  output             0.00


           peak memory used        119.21 megabytes
           total cpu time            3.27 seconds
           total elapsed time        8.78 seconds
           job started at     08:27:57 12/31/2015
           job ended   at     08:28:06 12/31/2015


 Loading pVA library idvdpmos.pvadir/pvaRTL_linux.so...
1****** HSPICE -- G-2012.06 32-BIT (May 27 2012) RHEL32 ******                  
 ******  
 *sample netlist for bsim-mg

  ******  circuit name directory
 circuit number to circuit name directory
   number circuitname                     definition         multiplier
        0 main circuit
        1 x1.                             bsimcmg(va)        1.00 
 **info** *pvaI* Creating Verilog-A module 'bsimcmg' for X1

  
      
 *****************************************************************
 ******  option summary
 ******
 runlvl  = 3         bypass  = 2         
  Opening plot unit= 15
 file=idvdpmos.pa1                                                             

 ******  
 *sample netlist for bsim-mg

  ******  dc transfer curves tnom=  25.000 temp=  27.000 *****

   *** source        0:vgs =    0.            ***

x

        volt    param        param      
                    ids         -gds    
    0.            0.           0.       
 -1.0000e-02    1.919e-14      0.       
 -2.0000e-02    3.276e-14    1.919e-12  
 -3.0000e-02    4.317e-14    1.357e-12  
 -4.0000e-02    5.284e-14    1.042e-12  
 -5.0000e-02    6.408e-14    9.664e-13  
 -6.0000e-02    7.900e-14    1.124e-12  
 -7.0000e-02    9.955e-14    1.493e-12  
 -8.0000e-02    1.276e-13    2.055e-12  
 -9.0000e-02    1.652e-13    2.807e-12  
   -0.10000     2.143e-13    3.755e-12  
   -0.11000     2.773e-13    4.914e-12  
   -0.12000     3.565e-13    6.297e-12  
   -0.13000     4.546e-13    7.921e-12  
   -0.14000     5.743e-13    9.805e-12  
   -0.15000     7.186e-13    1.197e-11  
   -0.16000     8.908e-13    1.444e-11  
   -0.17000     1.094e-12    1.722e-11  
   -0.18000     1.332e-12    2.033e-11  
   -0.19000     1.609e-12    2.380e-11  
   -0.20000     1.927e-12    2.764e-11  
   -0.21000     2.292e-12    3.187e-11  
   -0.22000     2.707e-12    3.649e-11  
   -0.23000     3.177e-12    4.153e-11  
   -0.24000     3.707e-12    4.700e-11  
   -0.25000     4.299e-12    5.291e-11  
   -0.26000     4.960e-12    5.927e-11  
   -0.27000     5.693e-12    6.607e-11  
   -0.28000     6.504e-12    7.335e-11  
   -0.29000     7.397e-12    8.108e-11  
   -0.30000     8.377e-12    8.928e-11  
   -0.31000     9.447e-12    9.795e-11  
   -0.32000     1.061e-11    1.071e-10  
   -0.33000     1.188e-11    1.167e-10  
   -0.34000     1.325e-11    1.267e-10  
   -0.35000     1.473e-11    1.372e-10  
   -0.36000     1.633e-11    1.481e-10  
   -0.37000     1.804e-11    1.594e-10  
   -0.38000     1.987e-11    1.711e-10  
   -0.39000     2.183e-11    1.832e-10  
   -0.40000     2.391e-11    1.957e-10  
   -0.41000     2.613e-11    2.085e-10  
   -0.42000     2.848e-11    2.216e-10  
   -0.43000     3.097e-11    2.350e-10  
   -0.44000     3.359e-11    2.487e-10  
   -0.45000     3.636e-11    2.626e-10  
   -0.46000     3.927e-11    2.767e-10  
   -0.47000     4.233e-11    2.910e-10  
   -0.48000     4.553e-11    3.055e-10  
   -0.49000     4.887e-11    3.200e-10  
   -0.50000     5.237e-11    3.347e-10  
   -0.51000     5.601e-11    3.494e-10  
   -0.52000     5.979e-11    3.641e-10  
   -0.53000     6.373e-11    3.788e-10  
   -0.54000     6.781e-11    3.935e-10  
   -0.55000     7.204e-11    4.081e-10  
   -0.56000     7.641e-11    4.226e-10  
   -0.57000     8.092e-11    4.370e-10  
   -0.58000     8.557e-11    4.512e-10  
   -0.59000     9.036e-11    4.653e-10  
   -0.60000     9.529e-11    4.792e-10  
   -0.61000     1.004e-10    4.929e-10  
   -0.62000     1.055e-10    5.063e-10  
   -0.63000     1.109e-10    5.195e-10  
   -0.64000     1.163e-10    5.324e-10  
   -0.65000     1.219e-10    5.449e-10  
   -0.66000     1.276e-10    5.573e-10  
   -0.67000     1.334e-10    5.692e-10  
   -0.68000     1.393e-10    5.809e-10  
   -0.69000     1.454e-10    5.922e-10  
   -0.70000     1.515e-10    6.032e-10  
   -0.71000     1.577e-10    6.138e-10  
   -0.72000     1.641e-10    6.241e-10  
   -0.73000     1.705e-10    6.340e-10  
   -0.74000     1.770e-10    6.435e-10  
   -0.75000     1.836e-10    6.527e-10  
   -0.76000     1.903e-10    6.615e-10  
   -0.77000     1.971e-10    6.700e-10  
   -0.78000     2.040e-10    6.781e-10  
   -0.79000     2.109e-10    6.859e-10  
   -0.80000     2.179e-10    6.933e-10  
   -0.81000     2.250e-10    7.004e-10  
   -0.82000     2.321e-10    7.071e-10  
   -0.83000     2.393e-10    7.135e-10  
   -0.84000     2.466e-10    7.196e-10  
   -0.85000     2.539e-10    7.253e-10  
   -0.86000     2.612e-10    7.308e-10  
   -0.87000     2.687e-10    7.359e-10  
   -0.88000     2.761e-10    7.408e-10  
   -0.89000     2.836e-10    7.454e-10  
   -0.90000     2.911e-10    7.497e-10  
   -0.91000     2.987e-10    7.537e-10  
   -0.92000     3.063e-10    7.575e-10  
   -0.93000     3.140e-10    7.610e-10  
   -0.94000     3.216e-10    7.643e-10  
   -0.95000     3.293e-10    7.674e-10  
   -0.96000     3.371e-10    7.702e-10  
   -0.97000     3.448e-10    7.729e-10  
   -0.98000     3.526e-10    7.753e-10  
   -0.99000     3.604e-10    7.776e-10  
   -1.00000     3.682e-10    7.796e-10  
y
-----------------------------------------------
 ******  
 *sample netlist for bsim-mg

  ******  dc transfer curves tnom=  25.000 temp=  27.000 *****

   *** source        0:vgs =   -0.1000        ***

x

        volt    param        param      
                    ids         -gds    
    0.         -3.330e-20      0.       
 -1.0000e-02    7.970e-13   -3.682e-08  
 -2.0000e-02    1.332e-12    7.970e-11  
 -3.0000e-02    1.676e-12    5.354e-11  
 -4.0000e-02    1.889e-12    3.433e-11  
 -5.0000e-02    2.025e-12    2.135e-11  
 -6.0000e-02    2.117e-12    1.354e-11  
 -7.0000e-02    2.189e-12    9.267e-12  
 -8.0000e-02    2.251e-12    7.134e-12  
 -9.0000e-02    2.312e-12    6.232e-12  
   -0.10000     2.375e-12    6.067e-12  
   -0.11000     2.446e-12    6.376e-12  
   -0.12000     2.526e-12    7.034e-12  
   -0.13000     2.617e-12    7.980e-12  
   -0.14000     2.724e-12    9.189e-12  
   -0.15000     2.848e-12    1.065e-11  
   -0.16000     2.991e-12    1.238e-11  
   -0.17000     3.158e-12    1.436e-11  
   -0.18000     3.350e-12    1.664e-11  
   -0.19000     3.571e-12    1.921e-11  
   -0.20000     3.823e-12    2.208e-11  
   -0.21000     4.112e-12    2.529e-11  
   -0.22000     4.439e-12    2.883e-11  
   -0.23000     4.809e-12    3.273e-11  
   -0.24000     5.225e-12    3.700e-11  
   -0.25000     5.692e-12    4.164e-11  
   -0.26000     6.214e-12    4.668e-11  
   -0.27000     6.793e-12    5.212e-11  
   -0.28000     7.436e-12    5.798e-11  
   -0.29000     8.145e-12    6.426e-11  
   -0.30000     8.926e-12    7.095e-11  
   -0.31000     9.783e-12    7.808e-11  
   -0.32000     1.072e-11    8.563e-11  
   -0.33000     1.174e-11    9.362e-11  
   -0.34000     1.285e-11    1.020e-10  
   -0.35000     1.405e-11    1.108e-10  
   -0.36000     1.535e-11    1.201e-10  
   -0.37000     1.674e-11    1.297e-10  
   -0.38000     1.825e-11    1.398e-10  
   -0.39000     1.986e-11    1.502e-10  
   -0.40000     2.158e-11    1.610e-10  
   -0.41000     2.341e-11    1.721e-10  
   -0.42000     2.537e-11    1.836e-10  
   -0.43000     2.744e-11    1.954e-10  
   -0.44000     2.964e-11    2.074e-10  
   -0.45000     3.196e-11    2.198e-10  
   -0.46000     3.441e-11    2.324e-10  
   -0.47000     3.699e-11    2.452e-10  
   -0.48000     3.971e-11    2.582e-10  
   -0.49000     4.255e-11    2.713e-10  
   -0.50000     4.553e-11    2.846e-10  
   -0.51000     4.865e-11    2.980e-10  
   -0.52000     5.190e-11    3.115e-10  
   -0.53000     5.529e-11    3.250e-10  
   -0.54000     5.881e-11    3.386e-10  
   -0.55000     6.246e-11    3.522e-10  
   -0.56000     6.626e-11    3.657e-10  
   -0.57000     7.018e-11    3.792e-10  
   -0.58000     7.424e-11    3.926e-10  
   -0.59000     7.843e-11    4.059e-10  
   -0.60000     8.276e-11    4.191e-10  
   -0.61000     8.721e-11    4.322e-10  
   -0.62000     9.178e-11    4.451e-10  
   -0.63000     9.649e-11    4.578e-10  
   -0.64000     1.013e-10    4.702e-10  
   -0.65000     1.063e-10    4.825e-10  
   -0.66000     1.113e-10    4.946e-10  
   -0.67000     1.165e-10    5.063e-10  
   -0.68000     1.218e-10    5.179e-10  
   -0.69000     1.272e-10    5.291e-10  
   -0.70000     1.327e-10    5.401e-10  
   -0.71000     1.383e-10    5.508e-10  
   -0.72000     1.440e-10    5.612e-10  
   -0.73000     1.498e-10    5.712e-10  
   -0.74000     1.557e-10    5.810e-10  
   -0.75000     1.617e-10    5.905e-10  
   -0.76000     1.678e-10    5.996e-10  
   -0.77000     1.740e-10    6.084e-10  
   -0.78000     1.802e-10    6.170e-10  
   -0.79000     1.866e-10    6.252e-10  
   -0.80000     1.930e-10    6.331e-10  
   -0.81000     1.995e-10    6.407e-10  
   -0.82000     2.060e-10    6.480e-10  
   -0.83000     2.126e-10    6.550e-10  
   -0.84000     2.193e-10    6.617e-10  
   -0.85000     2.260e-10    6.681e-10  
   -0.86000     2.328e-10    6.742e-10  
   -0.87000     2.397e-10    6.800e-10  
   -0.88000     2.466e-10    6.856e-10  
   -0.89000     2.536e-10    6.909e-10  
   -0.90000     2.606e-10    6.960e-10  
   -0.91000     2.676e-10    7.008e-10  
   -0.92000     2.747e-10    7.053e-10  
   -0.93000     2.819e-10    7.096e-10  
   -0.94000     2.890e-10    7.138e-10  
   -0.95000     2.963e-10    7.176e-10  
   -0.96000     3.035e-10    7.213e-10  
   -0.97000     3.108e-10    7.247e-10  
   -0.98000     3.181e-10    7.280e-10  
   -0.99000     3.254e-10    7.311e-10  
   -1.00000     3.328e-10    7.339e-10  
y
-----------------------------------------------
 ******  
 *sample netlist for bsim-mg

  ******  dc transfer curves tnom=  25.000 temp=  27.000 *****

   *** source        0:vgs =   -0.2000        ***

x

        volt    param        param      
                    ids         -gds    
    0.         -2.777e-18      0.       
 -1.0000e-02    3.324e-11   -3.328e-08  
 -2.0000e-02    5.554e-11    3.324e-09  
 -3.0000e-02    6.980e-11    2.231e-09  
 -4.0000e-02    7.857e-11    1.425e-09  
 -5.0000e-02    8.399e-11    8.770e-10  
 -6.0000e-02    8.750e-11    5.420e-10  
 -7.0000e-02    8.996e-11    3.514e-10  
 -8.0000e-02    9.184e-11    2.461e-10  
 -9.0000e-02    9.339e-11    1.877e-10  
   -0.10000     9.474e-11    1.548e-10  
   -0.11000     9.599e-11    1.358e-10  
   -0.12000     9.717e-11    1.247e-10  
   -0.13000     9.832e-11    1.183e-10  
   -0.14000     9.945e-11    1.148e-10  
   -0.15000     1.006e-10    1.132e-10  
   -0.16000     1.017e-10    1.128e-10  
   -0.17000     1.029e-10    1.133e-10  
   -0.18000     1.040e-10    1.145e-10  
   -0.19000     1.052e-10    1.162e-10  
   -0.20000     1.064e-10    1.184e-10  
   -0.21000     1.077e-10    1.210e-10  
   -0.22000     1.089e-10    1.240e-10  
   -0.23000     1.102e-10    1.274e-10  
   -0.24000     1.116e-10    1.311e-10  
   -0.25000     1.130e-10    1.352e-10  
   -0.26000     1.144e-10    1.397e-10  
   -0.27000     1.159e-10    1.445e-10  
   -0.28000     1.175e-10    1.497e-10  
   -0.29000     1.191e-10    1.553e-10  
   -0.30000     1.208e-10    1.613e-10  
   -0.31000     1.225e-10    1.677e-10  
   -0.32000     1.243e-10    1.744e-10  
   -0.33000     1.262e-10    1.816e-10  
   -0.34000     1.282e-10    1.892e-10  
   -0.35000     1.303e-10    1.972e-10  
   -0.36000     1.324e-10    2.056e-10  
   -0.37000     1.346e-10    2.143e-10  
   -0.38000     1.370e-10    2.235e-10  
   -0.39000     1.394e-10    2.330e-10  
   -0.40000     1.419e-10    2.429e-10  
   -0.41000     1.446e-10    2.532e-10  
   -0.42000     1.473e-10    2.638e-10  
   -0.43000     1.502e-10    2.748e-10  
   -0.44000     1.531e-10    2.860e-10  
   -0.45000     1.562e-10    2.976e-10  
   -0.46000     1.595e-10    3.094e-10  
   -0.47000     1.628e-10    3.215e-10  
   -0.48000     1.663e-10    3.339e-10  
   -0.49000     1.699e-10    3.464e-10  
   -0.50000     1.736e-10    3.592e-10  
   -0.51000     1.774e-10    3.721e-10  
   -0.52000     1.814e-10    3.852e-10  
   -0.53000     1.855e-10    3.979e-10  
   -0.54000     1.898e-10    4.113e-10  
   -0.55000     1.941e-10    4.246e-10  
   -0.56000     1.987e-10    4.380e-10  
   -0.57000     2.033e-10    4.514e-10  
   -0.58000     2.081e-10    4.648e-10  
   -0.59000     2.130e-10    4.782e-10  
   -0.60000     2.181e-10    4.915e-10  
   -0.61000     2.232e-10    5.047e-10  
   -0.62000     2.285e-10    5.179e-10  
   -0.63000     2.340e-10    5.309e-10  
   -0.64000     2.395e-10    5.438e-10  
   -0.65000     2.452e-10    5.566e-10  
   -0.66000     2.511e-10    5.692e-10  
   -0.67000     2.570e-10    5.816e-10  
   -0.68000     2.630e-10    5.938e-10  
   -0.69000     2.692e-10    6.059e-10  
   -0.70000     2.755e-10    6.177e-10  
   -0.71000     2.819e-10    6.293e-10  
   -0.72000     2.884e-10    6.406e-10  
   -0.73000     2.951e-10    6.517e-10  
   -0.74000     3.018e-10    6.626e-10  
   -0.75000     3.086e-10    6.732e-10  
   -0.76000     3.156e-10    6.836e-10  
   -0.77000     3.226e-10    6.937e-10  
   -0.78000     3.297e-10    7.035e-10  
   -0.79000     3.370e-10    7.131e-10  
   -0.80000     3.443e-10    7.224e-10  
   -0.81000     3.517e-10    7.314e-10  
   -0.82000     3.592e-10    7.402e-10  
   -0.83000     3.667e-10    7.487e-10  
   -0.84000     3.744e-10    7.570e-10  
   -0.85000     3.821e-10    7.649e-10  
   -0.86000     3.899e-10    7.727e-10  
   -0.87000     3.978e-10    7.802e-10  
   -0.88000     4.057e-10    7.874e-10  
   -0.89000     4.137e-10    7.944e-10  
   -0.90000     4.218e-10    8.012e-10  
   -0.91000     4.300e-10    8.078e-10  
   -0.92000     4.382e-10    8.141e-10  
   -0.93000     4.464e-10    8.202e-10  
   -0.94000     4.547e-10    8.261e-10  
   -0.95000     4.631e-10    8.317e-10  
   -0.96000     4.715e-10    8.373e-10  
   -0.97000     4.800e-10    8.425e-10  
   -0.98000     4.885e-10    8.476e-10  
   -0.99000     4.971e-10    8.525e-10  
   -1.00000     5.057e-10    8.573e-10  
y
-----------------------------------------------
 ******  
 *sample netlist for bsim-mg

  ******  dc transfer curves tnom=  25.000 temp=  27.000 *****

   *** source        0:vgs =   -0.3000        ***

x

        volt    param        param      
                    ids         -gds    
    0.         -1.734e-16      0.       
 -1.0000e-02    1.380e-09   -5.057e-08  
 -2.0000e-02    2.307e-09    1.380e-07  
 -3.0000e-02    2.899e-09    9.268e-08  
 -4.0000e-02    3.263e-09    5.920e-08  
 -5.0000e-02    3.487e-09    3.639e-08  
 -6.0000e-02    3.631e-09    2.240e-08  
 -7.0000e-02    3.731e-09    1.443e-08  
 -8.0000e-02    3.807e-09    1.001e-08  
 -9.0000e-02    3.868e-09    7.535e-09  
   -0.10000     3.921e-09    6.123e-09  
   -0.11000     3.969e-09    5.292e-09  
   -0.12000     4.013e-09    4.789e-09  
   -0.13000     4.056e-09    4.477e-09  
   -0.14000     4.098e-09    4.282e-09  
   -0.15000     4.139e-09    4.159e-09  
   -0.16000     4.179e-09    4.082e-09  
   -0.17000     4.219e-09    4.035e-09  
   -0.18000     4.259e-09    4.009e-09  
   -0.19000     4.299e-09    3.997e-09  
   -0.20000     4.339e-09    3.995e-09  
   -0.21000     4.379e-09    4.000e-09  
   -0.22000     4.419e-09    4.010e-09  
   -0.23000     4.460e-09    4.024e-09  
   -0.24000     4.500e-09    4.041e-09  
   -0.25000     4.541e-09    4.060e-09  
   -0.26000     4.582e-09    4.081e-09  
   -0.27000     4.624e-09    4.104e-09  
   -0.28000     4.665e-09    4.128e-09  
   -0.29000     4.707e-09    4.153e-09  
   -0.30000     4.749e-09    4.179e-09  
   -0.31000     4.791e-09    4.205e-09  
   -0.32000     4.834e-09    4.232e-09  
   -0.33000     4.877e-09    4.260e-09  
   -0.34000     4.920e-09    4.289e-09  
   -0.35000     4.963e-09    4.318e-09  
   -0.36000     5.007e-09    4.348e-09  
   -0.37000     5.051e-09    4.378e-09  
   -0.38000     5.096e-09    4.409e-09  
   -0.39000     5.140e-09    4.441e-09  
   -0.40000     5.185e-09    4.473e-09  
   -0.41000     5.231e-09    4.505e-09  
   -0.42000     5.277e-09    4.538e-09  
   -0.43000     5.323e-09    4.571e-09  
   -0.44000     5.369e-09    4.605e-09  
   -0.45000     5.416e-09    4.639e-09  
   -0.46000     5.463e-09    4.674e-09  
   -0.47000     5.510e-09    4.709e-09  
   -0.48000     5.558e-09    4.744e-09  
   -0.49000     5.606e-09    4.780e-09  
   -0.50000     5.655e-09    4.816e-09  
   -0.51000     5.704e-09    4.852e-09  
   -0.52000     5.753e-09    4.888e-09  
   -0.53000     5.802e-09    4.925e-09  
   -0.54000     5.852e-09    4.962e-09  
   -0.55000     5.903e-09    5.000e-09  
   -0.56000     5.954e-09    5.037e-09  
   -0.57000     6.005e-09    5.075e-09  
   -0.58000     6.056e-09    5.113e-09  
   -0.59000     6.108e-09    5.151e-09  
   -0.60000     6.160e-09    5.189e-09  
   -0.61000     6.213e-09    5.228e-09  
   -0.62000     6.266e-09    5.266e-09  
   -0.63000     6.320e-09    5.304e-09  
   -0.64000     6.373e-09    5.343e-09  
   -0.65000     6.428e-09    5.381e-09  
   -0.66000     6.482e-09    5.420e-09  
   -0.67000     6.537e-09    5.458e-09  
   -0.68000     6.592e-09    5.497e-09  
   -0.69000     6.648e-09    5.535e-09  
   -0.70000     6.704e-09    5.574e-09  
   -0.71000     6.761e-09    5.612e-09  
   -0.72000     6.818e-09    5.650e-09  
   -0.73000     6.875e-09    5.689e-09  
   -0.74000     6.933e-09    5.727e-09  
   -0.75000     6.991e-09    5.765e-09  
   -0.76000     7.049e-09    5.803e-09  
   -0.77000     7.108e-09    5.840e-09  
   -0.78000     7.167e-09    5.878e-09  
   -0.79000     7.227e-09    5.916e-09  
   -0.80000     7.286e-09    5.953e-09  
   -0.81000     7.347e-09    5.991e-09  
   -0.82000     7.407e-09    6.028e-09  
   -0.83000     7.468e-09    6.065e-09  
   -0.84000     7.530e-09    6.102e-09  
   -0.85000     7.592e-09    6.139e-09  
   -0.86000     7.654e-09    6.176e-09  
   -0.87000     7.716e-09    6.213e-09  
   -0.88000     7.779e-09    6.249e-09  
   -0.89000     7.842e-09    6.286e-09  
   -0.90000     7.906e-09    6.322e-09  
   -0.91000     7.970e-09    6.358e-09  
   -0.92000     8.034e-09    6.394e-09  
   -0.93000     8.099e-09    6.431e-09  
   -0.94000     8.164e-09    6.467e-09  
   -0.95000     8.229e-09    6.503e-09  
   -0.96000     8.295e-09    6.538e-09  
   -0.97000     8.361e-09    6.574e-09  
   -0.98000     8.427e-09    6.610e-09  
   -0.99000     8.494e-09    6.646e-09  
   -1.00000     8.561e-09    6.681e-09  
y
-----------------------------------------------
 ******  
 *sample netlist for bsim-mg

  ******  dc transfer curves tnom=  25.000 temp=  27.000 *****

   *** source        0:vgs =   -0.4000        ***

x

        volt    param        param      
                    ids         -gds    
    0.         -9.029e-15      0.       
 -1.0000e-02    5.339e-08   -8.561e-07  
 -2.0000e-02    9.002e-08    5.339e-06  
 -3.0000e-02    1.138e-07    3.663e-06  
 -4.0000e-02    1.287e-07    2.381e-06  
 -5.0000e-02    1.378e-07    1.483e-06  
 -6.0000e-02    1.437e-07    9.185e-07  
 -7.0000e-02    1.478e-07    5.900e-07  
 -8.0000e-02    1.508e-07    4.047e-07  
 -9.0000e-02    1.532e-07    2.997e-07  
   -0.10000     1.552e-07    2.389e-07  
   -0.11000     1.570e-07    2.026e-07  
   -0.12000     1.587e-07    1.802e-07  
   -0.13000     1.602e-07    1.660e-07  
   -0.14000     1.617e-07    1.568e-07  
   -0.15000     1.632e-07    1.508e-07  
   -0.16000     1.647e-07    1.467e-07  
   -0.17000     1.661e-07    1.440e-07  
   -0.18000     1.675e-07    1.422e-07  
   -0.19000     1.689e-07    1.411e-07  
   -0.20000     1.703e-07    1.403e-07  
   -0.21000     1.717e-07    1.399e-07  
   -0.22000     1.731e-07    1.397e-07  
   -0.23000     1.745e-07    1.397e-07  
   -0.24000     1.759e-07    1.398e-07  
   -0.25000     1.773e-07    1.400e-07  
   -0.26000     1.787e-07    1.403e-07  
   -0.27000     1.801e-07    1.407e-07  
   -0.28000     1.815e-07    1.411e-07  
   -0.29000     1.829e-07    1.415e-07  
   -0.30000     1.844e-07    1.419e-07  
   -0.31000     1.858e-07    1.424e-07  
   -0.32000     1.872e-07    1.429e-07  
   -0.33000     1.887e-07    1.434e-07  
   -0.34000     1.901e-07    1.440e-07  
   -0.35000     1.916e-07    1.445e-07  
   -0.36000     1.930e-07    1.451e-07  
   -0.37000     1.945e-07    1.456e-07  
   -0.38000     1.959e-07    1.462e-07  
   -0.39000     1.974e-07    1.468e-07  
   -0.40000     1.989e-07    1.473e-07  
   -0.41000     2.004e-07    1.479e-07  
   -0.42000     2.019e-07    1.485e-07  
   -0.43000     2.034e-07    1.491e-07  
   -0.44000     2.049e-07    1.497e-07  
   -0.45000     2.064e-07    1.503e-07  
   -0.46000     2.079e-07    1.509e-07  
   -0.47000     2.094e-07    1.515e-07  
   -0.48000     2.109e-07    1.521e-07  
   -0.49000     2.125e-07    1.527e-07  
   -0.50000     2.140e-07    1.533e-07  
   -0.51000     2.156e-07    1.540e-07  
   -0.52000     2.171e-07    1.546e-07  
   -0.53000     2.187e-07    1.552e-07  
   -0.54000     2.202e-07    1.558e-07  
   -0.55000     2.218e-07    1.564e-07  
   -0.56000     2.234e-07    1.571e-07  
   -0.57000     2.250e-07    1.577e-07  
   -0.58000     2.266e-07    1.583e-07  
   -0.59000     2.282e-07    1.590e-07  
   -0.60000     2.298e-07    1.596e-07  
   -0.61000     2.314e-07    1.603e-07  
   -0.62000     2.330e-07    1.609e-07  
   -0.63000     2.346e-07    1.615e-07  
   -0.64000     2.362e-07    1.622e-07  
   -0.65000     2.379e-07    1.628e-07  
   -0.66000     2.395e-07    1.635e-07  
   -0.67000     2.412e-07    1.641e-07  
   -0.68000     2.428e-07    1.648e-07  
   -0.69000     2.445e-07    1.654e-07  
   -0.70000     2.461e-07    1.661e-07  
   -0.71000     2.478e-07    1.667e-07  
   -0.72000     2.495e-07    1.674e-07  
   -0.73000     2.512e-07    1.681e-07  
   -0.74000     2.529e-07    1.687e-07  
   -0.75000     2.546e-07    1.694e-07  
   -0.76000     2.563e-07    1.700e-07  
   -0.77000     2.580e-07    1.707e-07  
   -0.78000     2.597e-07    1.714e-07  
   -0.79000     2.614e-07    1.720e-07  
   -0.80000     2.632e-07    1.727e-07  
   -0.81000     2.649e-07    1.734e-07  
   -0.82000     2.667e-07    1.741e-07  
   -0.83000     2.684e-07    1.747e-07  
   -0.84000     2.702e-07    1.754e-07  
   -0.85000     2.719e-07    1.761e-07  
   -0.86000     2.737e-07    1.768e-07  
   -0.87000     2.755e-07    1.775e-07  
   -0.88000     2.773e-07    1.781e-07  
   -0.89000     2.791e-07    1.788e-07  
   -0.90000     2.809e-07    1.795e-07  
   -0.91000     2.827e-07    1.802e-07  
   -0.92000     2.845e-07    1.809e-07  
   -0.93000     2.863e-07    1.816e-07  
   -0.94000     2.882e-07    1.823e-07  
   -0.95000     2.900e-07    1.830e-07  
   -0.96000     2.918e-07    1.837e-07  
   -0.97000     2.937e-07    1.844e-07  
   -0.98000     2.956e-07    1.851e-07  
   -0.99000     2.974e-07    1.858e-07  
   -1.00000     2.993e-07    1.865e-07  
y
-----------------------------------------------
 ******  
 *sample netlist for bsim-mg

  ******  dc transfer curves tnom=  25.000 temp=  27.000 *****

   *** source        0:vgs =   -0.5000        ***

x

        volt    param        param      
                    ids         -gds    
    0.         -1.804e-13      0.       
 -1.0000e-02    8.489e-07   -2.993e-05  
 -2.0000e-02    1.538e-06    8.489e-05  
 -3.0000e-02    2.074e-06    6.889e-05  
 -4.0000e-02    2.472e-06    5.361e-05  
 -5.0000e-02    2.758e-06    3.984e-05  
 -6.0000e-02    2.958e-06    2.853e-05  
 -7.0000e-02    3.100e-06    2.007e-05  
 -8.0000e-02    3.203e-06    1.418e-05  
 -9.0000e-02    3.280e-06    1.026e-05  
   -0.10000     3.340e-06    7.706e-06  
   -0.11000     3.389e-06    6.035e-06  
   -0.12000     3.431e-06    4.931e-06  
   -0.13000     3.468e-06    4.189e-06  
   -0.14000     3.501e-06    3.681e-06  
   -0.15000     3.532e-06    3.325e-06  
   -0.16000     3.561e-06    3.072e-06  
   -0.17000     3.589e-06    2.888e-06  
   -0.18000     3.615e-06    2.753e-06  
   -0.19000     3.641e-06    2.652e-06  
   -0.20000     3.666e-06    2.576e-06  
   -0.21000     3.691e-06    2.517e-06  
   -0.22000     3.715e-06    2.472e-06  
   -0.23000     3.739e-06    2.437e-06  
   -0.24000     3.763e-06    2.410e-06  
   -0.25000     3.787e-06    2.388e-06  
   -0.26000     3.810e-06    2.371e-06  
   -0.27000     3.834e-06    2.358e-06  
   -0.28000     3.857e-06    2.348e-06  
   -0.29000     3.881e-06    2.340e-06  
   -0.30000     3.904e-06    2.334e-06  
   -0.31000     3.927e-06    2.329e-06  
   -0.32000     3.950e-06    2.326e-06  
   -0.33000     3.974e-06    2.323e-06  
   -0.34000     3.997e-06    2.322e-06  
   -0.35000     4.020e-06    2.321e-06  
   -0.36000     4.043e-06    2.321e-06  
   -0.37000     4.066e-06    2.321e-06  
   -0.38000     4.090e-06    2.322e-06  
   -0.39000     4.113e-06    2.323e-06  
   -0.40000     4.136e-06    2.325e-06  
   -0.41000     4.159e-06    2.327e-06  
   -0.42000     4.183e-06    2.329e-06  
   -0.43000     4.206e-06    2.331e-06  
   -0.44000     4.229e-06    2.334e-06  
   -0.45000     4.253e-06    2.336e-06  
   -0.46000     4.276e-06    2.339e-06  
   -0.47000     4.300e-06    2.342e-06  
   -0.48000     4.323e-06    2.345e-06  
   -0.49000     4.347e-06    2.348e-06  
   -0.50000     4.370e-06    2.352e-06  
   -0.51000     4.394e-06    2.355e-06  
   -0.52000     4.417e-06    2.358e-06  
   -0.53000     4.441e-06    2.362e-06  
   -0.54000     4.465e-06    2.365e-06  
   -0.55000     4.489e-06    2.369e-06  
   -0.56000     4.512e-06    2.373e-06  
   -0.57000     4.536e-06    2.376e-06  
   -0.58000     4.560e-06    2.380e-06  
   -0.59000     4.584e-06    2.384e-06  
   -0.60000     4.608e-06    2.388e-06  
   -0.61000     4.632e-06    2.392e-06  
   -0.62000     4.656e-06    2.395e-06  
   -0.63000     4.680e-06    2.399e-06  
   -0.64000     4.704e-06    2.403e-06  
   -0.65000     4.728e-06    2.407e-06  
   -0.66000     4.752e-06    2.411e-06  
   -0.67000     4.776e-06    2.415e-06  
   -0.68000     4.800e-06    2.419e-06  
   -0.69000     4.825e-06    2.423e-06  
   -0.70000     4.849e-06    2.427e-06  
   -0.71000     4.873e-06    2.431e-06  
   -0.72000     4.898e-06    2.436e-06  
   -0.73000     4.922e-06    2.440e-06  
   -0.74000     4.947e-06    2.444e-06  
   -0.75000     4.971e-06    2.448e-06  
   -0.76000     4.996e-06    2.452e-06  
   -0.77000     5.020e-06    2.456e-06  
   -0.78000     5.045e-06    2.460e-06  
   -0.79000     5.070e-06    2.465e-06  
   -0.80000     5.094e-06    2.469e-06  
   -0.81000     5.119e-06    2.473e-06  
   -0.82000     5.144e-06    2.477e-06  
   -0.83000     5.169e-06    2.481e-06  
   -0.84000     5.194e-06    2.486e-06  
   -0.85000     5.219e-06    2.490e-06  
   -0.86000     5.244e-06    2.494e-06  
   -0.87000     5.269e-06    2.498e-06  
   -0.88000     5.294e-06    2.503e-06  
   -0.89000     5.319e-06    2.507e-06  
   -0.90000     5.344e-06    2.511e-06  
   -0.91000     5.369e-06    2.515e-06  
   -0.92000     5.395e-06    2.520e-06  
   -0.93000     5.420e-06    2.524e-06  
[...]
   -0.96000     5.380e-06    1.508e-06  
   -0.97000     5.395e-06    1.508e-06  
   -0.98000     5.410e-06    1.509e-06  
   -0.99000     5.425e-06    1.509e-06  
   -1.00000     5.440e-06    1.509e-06  
y
-----------------------------------------------
 ******  
 *sample netlist for bsim-mg

  ******  dc transfer curves tnom=  25.000 temp= 100.000 *****

   *** source        0:vgs =   -0.7000        ***

x

        volt    param        param      
                    ids         -gds    
    0.         -4.150e-12      0.       
 -1.0000e-02    8.264e-07   -5.440e-04  
 -2.0000e-02    1.614e-06    8.264e-05  
 -3.0000e-02    2.362e-06    7.875e-05  
 -4.0000e-02    3.072e-06    7.486e-05  
 -5.0000e-02    3.741e-06    7.091e-05  
 -6.0000e-02    4.369e-06    6.691e-05  
 -7.0000e-02    4.957e-06    6.286e-05  
 -8.0000e-02    5.504e-06    5.877e-05  
 -9.0000e-02    6.009e-06    5.465e-05  
   -0.10000     6.474e-06    5.055e-05  
   -0.11000     6.900e-06    4.651e-05  
   -0.12000     7.288e-06    4.257e-05  
   -0.13000     7.639e-06    3.877e-05  
   -0.14000     7.956e-06    3.515e-05  
   -0.15000     8.242e-06    3.174e-05  
   -0.16000     8.499e-06    2.857e-05  
   -0.17000     8.729e-06    2.565e-05  
   -0.18000     8.935e-06    2.300e-05  
   -0.19000     9.119e-06    2.060e-05  
   -0.20000     9.285e-06    1.846e-05  
   -0.21000     9.434e-06    1.656e-05  
   -0.22000     9.568e-06    1.488e-05  
   -0.23000     9.689e-06    1.340e-05  
   -0.24000     9.799e-06    1.211e-05  
   -0.25000     9.899e-06    1.098e-05  
   -0.26000     9.990e-06    1.000e-05  
   -0.27000     1.007e-05    9.148e-06  
   -0.28000     1.015e-05    8.405e-06  
   -0.29000     1.022e-05    7.760e-06  
   -0.30000     1.029e-05    7.198e-06  
   -0.31000     1.035e-05    6.709e-06  
   -0.32000     1.041e-05    6.283e-06  
   -0.33000     1.047e-05    5.910e-06  
   -0.34000     1.052e-05    5.584e-06  
   -0.35000     1.057e-05    5.298e-06  
   -0.36000     1.062e-05    5.046e-06  
   -0.37000     1.067e-05    4.824e-06  
   -0.38000     1.071e-05    4.628e-06  
   -0.39000     1.075e-05    4.455e-06  
   -0.40000     1.080e-05    4.301e-06  
   -0.41000     1.084e-05    4.164e-06  
   -0.42000     1.088e-05    4.042e-06  
   -0.43000     1.091e-05    3.932e-06  
   -0.44000     1.095e-05    3.834e-06  
   -0.45000     1.099e-05    3.747e-06  
   -0.46000     1.102e-05    3.668e-06  
   -0.47000     1.106e-05    3.596e-06  
   -0.48000     1.109e-05    3.532e-06  
   -0.49000     1.113e-05    3.473e-06  
   -0.50000     1.116e-05    3.420e-06  
   -0.51000     1.120e-05    3.372e-06  
   -0.52000     1.123e-05    3.329e-06  
   -0.53000     1.126e-05    3.289e-06  
   -0.54000     1.129e-05    3.252e-06  
   -0.55000     1.132e-05    3.219e-06  
   -0.56000     1.136e-05    3.188e-06  
   -0.57000     1.139e-05    3.160e-06  
   -0.58000     1.142e-05    3.134e-06  
   -0.59000     1.145e-05    3.110e-06  
   -0.60000     1.148e-05    3.088e-06  
   -0.61000     1.151e-05    3.068e-06  
   -0.62000     1.154e-05    3.049e-06  
   -0.63000     1.157e-05    3.032e-06  
   -0.64000     1.160e-05    3.016e-06  
   -0.65000     1.163e-05    3.001e-06  
   -0.66000     1.166e-05    2.987e-06  
   -0.67000     1.169e-05    2.975e-06  
   -0.68000     1.172e-05    2.963e-06  
   -0.69000     1.175e-05    2.952e-06  
   -0.70000     1.178e-05    2.941e-06  
   -0.71000     1.181e-05    2.932e-06  
   -0.72000     1.184e-05    2.923e-06  
   -0.73000     1.187e-05    2.914e-06  
   -0.74000     1.190e-05    2.906e-06  
   -0.75000     1.192e-05    2.899e-06  
   -0.76000     1.195e-05    2.892e-06  
   -0.77000     1.198e-05    2.886e-06  
   -0.78000     1.201e-05    2.880e-06  
   -0.79000     1.204e-05    2.874e-06  
   -0.80000     1.207e-05    2.869e-06  
   -0.81000     1.210e-05    2.864e-06  
   -0.82000     1.212e-05    2.859e-06  
   -0.83000     1.215e-05    2.855e-06  
   -0.84000     1.218e-05    2.851e-06  
   -0.85000     1.221e-05    2.847e-06  
   -0.86000     1.224e-05    2.843e-06  
   -0.87000     1.227e-05    2.840e-06  
   -0.88000     1.230e-05    2.837e-06  
   -0.89000     1.232e-05    2.834e-06  
   -0.90000     1.235e-05    2.831e-06  
   -0.91000     1.238e-05    2.828e-06  
   -0.92000     1.241e-05    2.826e-06  
   -0.93000     1.244e-05    2.824e-06  
   -0.94000     1.246e-05    2.821e-06  
   -0.95000     1.249e-05    2.819e-06  
   -0.96000     1.252e-05    2.817e-06  
   -0.97000     1.255e-05    2.816e-06  
   -0.98000     1.258e-05    2.814e-06  
   -0.99000     1.261e-05    2.812e-06  
   -1.00000     1.263e-05    2.811e-06  
y
-----------------------------------------------
 ******  
 *sample netlist for bsim-mg

  ******  dc transfer curves tnom=  25.000 temp= 100.000 *****

   *** source        0:vgs =   -0.8000        ***

x

        volt    param        param      
                    ids         -gds    
    0.         -7.482e-12      0.       
 -1.0000e-02    1.231e-06   -1.263e-03  
 -2.0000e-02    2.421e-06    1.231e-04  
 -3.0000e-02    3.568e-06    1.189e-04  
 -4.0000e-02    4.673e-06    1.147e-04  
 -5.0000e-02    5.735e-06    1.105e-04  
 -6.0000e-02    6.753e-06    1.062e-04  
 -7.0000e-02    7.727e-06    1.018e-04  
 -8.0000e-02    8.656e-06    9.740e-05  
 -9.0000e-02    9.540e-06    9.290e-05  
   -0.10000     1.038e-05    8.835e-05  
   -0.11000     1.117e-05    8.376e-05  
   -0.12000     1.191e-05    7.916e-05  
   -0.13000     1.261e-05    7.457e-05  
   -0.14000     1.327e-05    7.002e-05  
   -0.15000     1.388e-05    6.554e-05  
   -0.16000     1.445e-05    6.116e-05  
   -0.17000     1.498e-05    5.692e-05  
   -0.18000     1.547e-05    5.282e-05  
   -0.19000     1.592e-05    4.890e-05  
   -0.20000     1.634e-05    4.518e-05  
   -0.21000     1.672e-05    4.167e-05  
   -0.22000     1.707e-05    3.838e-05  
   -0.23000     1.740e-05    3.532e-05  
   -0.24000     1.770e-05    3.247e-05  
   -0.25000     1.797e-05    2.986e-05  
   -0.26000     1.822e-05    2.746e-05  
   -0.27000     1.846e-05    2.526e-05  
   -0.28000     1.867e-05    2.327e-05  
   -0.29000     1.887e-05    2.146e-05  
   -0.30000     1.905e-05    1.982e-05  
   -0.31000     1.922e-05    1.834e-05  
   -0.32000     1.938e-05    1.701e-05  
   -0.33000     1.953e-05    1.581e-05  
   -0.34000     1.967e-05    1.474e-05  
   -0.35000     1.980e-05    1.377e-05  
   -0.36000     1.992e-05    1.291e-05  
   -0.37000     2.003e-05    1.213e-05  
   -0.38000     2.014e-05    1.143e-05  
   -0.39000     2.024e-05    1.080e-05  
   -0.40000     2.034e-05    1.024e-05  
   -0.41000     2.043e-05    9.728e-06  
   -0.42000     2.052e-05    9.271e-06  
   -0.43000     2.060e-05    8.858e-06  
   -0.44000     2.069e-05    8.486e-06  
   -0.45000     2.076e-05    8.150e-06  
   -0.46000     2.084e-05    7.846e-06  
   -0.47000     2.091e-05    7.571e-06  
   -0.48000     2.098e-05    7.321e-06  
   -0.49000     2.105e-05    7.093e-06  
   -0.50000     2.112e-05    6.887e-06  
   -0.51000     2.119e-05    6.698e-06  
   -0.52000     2.125e-05    6.526e-06  
   -0.53000     2.131e-05    6.369e-06  
   -0.54000     2.137e-05    6.225e-06  
   -0.55000     2.143e-05    6.093e-06  
   -0.56000     2.149e-05    5.972e-06  
   -0.57000     2.155e-05    5.861e-06  
   -0.58000     2.161e-05    5.758e-06  
   -0.59000     2.166e-05    5.664e-06  
   -0.60000     2.172e-05    5.577e-06  
   -0.61000     2.177e-05    5.496e-06  
   -0.62000     2.182e-05    5.422e-06  
   -0.63000     2.188e-05    5.352e-06  
   -0.64000     2.193e-05    5.288e-06  
   -0.65000     2.198e-05    5.229e-06  
   -0.66000     2.203e-05    5.174e-06  
   -0.67000     2.208e-05    5.122e-06  
   -0.68000     2.213e-05    5.074e-06  
   -0.69000     2.218e-05    5.029e-06  
   -0.70000     2.223e-05    4.988e-06  
   -0.71000     2.228e-05    4.949e-06  
   -0.72000     2.233e-05    4.912e-06  
   -0.73000     2.238e-05    4.878e-06  
   -0.74000     2.243e-05    4.846e-06  
   -0.75000     2.247e-05    4.816e-06  
   -0.76000     2.252e-05    4.787e-06  
   -0.77000     2.257e-05    4.761e-06  
   -0.78000     2.262e-05    4.736e-06  
   -0.79000     2.266e-05    4.712e-06  
   -0.80000     2.271e-05    4.690e-06  
   -0.81000     2.276e-05    4.669e-06  
   -0.82000     2.280e-05    4.650e-06  
   -0.83000     2.285e-05    4.631e-06  
   -0.84000     2.290e-05    4.614e-06  
   -0.85000     2.294e-05    4.597e-06  
   -0.86000     2.299e-05    4.581e-06  
   -0.87000     2.303e-05    4.566e-06  
   -0.88000     2.308e-05    4.552e-06  
   -0.89000     2.312e-05    4.539e-06  
   -0.90000     2.317e-05    4.526e-06  
   -0.91000     2.321e-05    4.514e-06  
   -0.92000     2.326e-05    4.503e-06  
   -0.93000     2.330e-05    4.492e-06  
   -0.94000     2.335e-05    4.482e-06  
   -0.95000     2.339e-05    4.472e-06  
   -0.96000     2.344e-05    4.463e-06  
   -0.97000     2.348e-05    4.454e-06  
   -0.98000     2.353e-05    4.446e-06  
   -0.99000     2.357e-05    4.438e-06  
   -1.00000     2.361e-05    4.430e-06  
y
-----------------------------------------------
 ******  
 *sample netlist for bsim-mg

  ******  dc transfer curves tnom=  25.000 temp= 100.000 *****

   *** source        0:vgs =   -0.9000        ***

x

        volt    param        param      
                    ids         -gds    
    0.         -1.224e-11      0.       
 -1.0000e-02    1.654e-06   -2.361e-03  
 -2.0000e-02    3.266e-06    1.654e-04  
 -3.0000e-02    4.835e-06    1.612e-04  
 -4.0000e-02    6.360e-06    1.569e-04  
 -5.0000e-02    7.842e-06    1.525e-04  
 -6.0000e-02    9.279e-06    1.482e-04  
 -7.0000e-02    1.067e-05    1.437e-04  
 -8.0000e-02    1.202e-05    1.392e-04  
 -9.0000e-02    1.332e-05    1.346e-04  
   -0.10000     1.457e-05    1.299e-04  
   -0.11000     1.577e-05    1.252e-04  
   -0.12000     1.693e-05    1.204e-04  
   -0.13000     1.803e-05    1.155e-04  
   -0.14000     1.909e-05    1.106e-04  
   -0.15000     2.010e-05    1.058e-04  
   -0.16000     2.106e-05    1.009e-04  
   -0.17000     2.197e-05    9.600e-05  
   -0.18000     2.283e-05    9.118e-05  
   -0.19000     2.365e-05    8.643e-05  
   -0.20000     2.442e-05    8.176e-05  
   -0.21000     2.515e-05    7.720e-05  
   -0.22000     2.584e-05    7.277e-05  
   -0.23000     2.648e-05    6.848e-05  
   -0.24000     2.708e-05    6.435e-05  
   -0.25000     2.765e-05    6.039e-05  
   -0.26000     2.818e-05    5.660e-05  
   -0.27000     2.868e-05    5.301e-05  
   -0.28000     2.914e-05    4.960e-05  
   -0.29000     2.957e-05    4.639e-05  
   -0.30000     2.998e-05    4.337e-05  
   -0.31000     3.036e-05    4.055e-05  
   -0.32000     3.071e-05    3.791e-05  
   -0.33000     3.104e-05    3.545e-05  
   -0.34000     3.136e-05    3.317e-05  
   -0.35000     3.165e-05    3.106e-05  
   -0.36000     3.192e-05    2.911e-05  
   -0.37000     3.218e-05    2.731e-05  
   -0.38000     3.242e-05    2.565e-05  
   -0.39000     3.264e-05    2.412e-05  
   -0.40000     3.286e-05    2.272e-05  
   -0.41000     3.306e-05    2.143e-05  
   -0.42000     3.325e-05    2.025e-05  
   -0.43000     3.343e-05    1.917e-05  
   -0.44000     3.361e-05    1.817e-05  
   -0.45000     3.377e-05    1.726e-05  
   -0.46000     3.393e-05    1.643e-05  
   -0.47000     3.408e-05    1.566e-05  
   -0.48000     3.422e-05    1.496e-05  
   -0.49000     3.436e-05    1.432e-05  
   -0.50000     3.449e-05    1.373e-05  
   -0.51000     3.462e-05    1.318e-05  
   -0.52000     3.474e-05    1.268e-05  
   -0.53000     3.486e-05    1.223e-05  
   -0.54000     3.497e-05    1.180e-05  
   -0.55000     3.508e-05    1.142e-05  
   -0.56000     3.519e-05    1.106e-05  
   -0.57000     3.529e-05    1.073e-05  
   -0.58000     3.539e-05    1.042e-05  
   -0.59000     3.549e-05    1.014e-05  
   -0.60000     3.559e-05    9.880e-06  
   -0.61000     3.568e-05    9.638e-06  
   -0.62000     3.578e-05    9.414e-06  
   -0.63000     3.587e-05    9.207e-06  
   -0.64000     3.595e-05    9.014e-06  
   -0.65000     3.604e-05    8.835e-06  
   -0.66000     3.613e-05    8.668e-06  
   -0.67000     3.621e-05    8.512e-06  
   -0.68000     3.629e-05    8.368e-06  
   -0.69000     3.637e-05    8.232e-06  
   -0.70000     3.645e-05    8.106e-06  
   -0.71000     3.653e-05    7.988e-06  
   -0.72000     3.661e-05    7.878e-06  
   -0.73000     3.669e-05    7.774e-06  
   -0.74000     3.676e-05    7.677e-06  
   -0.75000     3.684e-05    7.586e-06  
   -0.76000     3.691e-05    7.501e-06  
   -0.77000     3.699e-05    7.420e-06  
   -0.78000     3.706e-05    7.345e-06  
   -0.79000     3.713e-05    7.274e-06  
   -0.80000     3.720e-05    7.207e-06  
   -0.81000     3.727e-05    7.144e-06  
   -0.82000     3.734e-05    7.084e-06  
   -0.83000     3.741e-05    7.028e-06  
   -0.84000     3.748e-05    6.975e-06  
   -0.85000     3.755e-05    6.924e-06  
   -0.86000     3.762e-05    6.877e-06  
   -0.87000     3.769e-05    6.832e-06  
   -0.88000     3.775e-05    6.789e-06  
   -0.89000     3.782e-05    6.749e-06  
   -0.90000     3.789e-05    6.710e-06  
   -0.91000     3.795e-05    6.674e-06  
   -0.92000     3.802e-05    6.639e-06  
   -0.93000     3.809e-05    6.606e-06  
   -0.94000     3.815e-05    6.575e-06  
   -0.95000     3.822e-05    6.545e-06  
   -0.96000     3.828e-05    6.517e-06  
   -0.97000     3.835e-05    6.490e-06  
   -0.98000     3.841e-05    6.464e-06  
   -0.99000     3.847e-05    6.439e-06  
   -1.00000     3.854e-05    6.416e-06  
y
-----------------------------------------------
 ******  
 *sample netlist for bsim-mg

  ******  dc transfer curves tnom=  25.000 temp= 100.000 *****

   *** source        0:vgs =   -1.0000        ***

x

        volt    param        param      
                    ids         -gds    
    0.         -1.880e-11      0.       
 -1.0000e-02    2.081e-06   -3.854e-03  
 -2.0000e-02    4.119e-06    2.081e-04  
 -3.0000e-02    6.114e-06    2.038e-04  
 -4.0000e-02    8.067e-06    1.996e-04  
 -5.0000e-02    9.976e-06    1.952e-04  
 -6.0000e-02    1.184e-05    1.909e-04  
 -7.0000e-02    1.366e-05    1.865e-04  
 -8.0000e-02    1.543e-05    1.820e-04  
 -9.0000e-02    1.716e-05    1.774e-04  
   -0.10000     1.884e-05    1.728e-04  
   -0.11000     2.048e-05    1.681e-04  
   -0.12000     2.206e-05    1.633e-04  
   -0.13000     2.360e-05    1.585e-04  
   -0.14000     2.508e-05    1.536e-04  
   -0.15000     2.652e-05    1.486e-04  
   -0.16000     2.790e-05    1.436e-04  
   -0.17000     2.924e-05    1.386e-04  
   -0.18000     3.052e-05    1.335e-04  
   -0.19000     3.176e-05    1.285e-04  
   -0.20000     3.294e-05    1.234e-04  
   -0.21000     3.408e-05    1.184e-04  
   -0.22000     3.516e-05    1.134e-04  
   -0.23000     3.620e-05    1.085e-04  
   -0.24000     3.719e-05    1.037e-04  
   -0.25000     3.813e-05    9.889e-05  
   -0.26000     3.903e-05    9.423e-05  
   -0.27000     3.988e-05    8.968e-05  
   -0.28000     4.069e-05    8.526e-05  
   -0.29000     4.146e-05    8.097e-05  
   -0.30000     4.219e-05    7.683e-05  
   -0.31000     4.288e-05    7.283e-05  
   -0.32000     4.353e-05    6.900e-05  
   -0.33000     4.415e-05    6.533e-05  
   -0.34000     4.473e-05    6.183e-05  
   -0.35000     4.529e-05    5.849e-05  
   -0.36000     4.581e-05    5.532e-05  
   -0.37000     4.630e-05    5.232e-05  
   -0.38000     4.677e-05    4.948e-05  
   -0.39000     4.721e-05    4.680e-05  
   -0.40000     4.763e-05    4.427e-05  
   -0.41000     4.803e-05    4.190e-05  
   -0.42000     4.841e-05    3.967e-05  
   -0.43000     4.876e-05    3.759e-05  
   -0.44000     4.910e-05    3.564e-05  
   -0.45000     4.942e-05    3.381e-05  
   -0.46000     4.973e-05    3.211e-05  
   -0.47000     5.002e-05    3.052e-05  
   -0.48000     5.029e-05    2.904e-05  
   -0.49000     5.056e-05    2.766e-05  
   -0.50000     5.081e-05    2.637e-05  
   -0.51000     5.105e-05    2.518e-05  
   -0.52000     5.128e-05    2.406e-05  
   -0.53000     5.150e-05    2.303e-05  
   -0.54000     5.171e-05    2.207e-05  
   -0.55000     5.192e-05    2.117e-05  
   -0.56000     5.211e-05    2.034e-05  
   -0.57000     5.230e-05    1.956e-05  
   -0.58000     5.248e-05    1.884e-05  
   -0.59000     5.266e-05    1.817e-05  
   -0.60000     5.283e-05    1.755e-05  
   -0.61000     5.299e-05    1.697e-05  
   -0.62000     5.315e-05    1.642e-05  
   -0.63000     5.330e-05    1.592e-05  
   -0.64000     5.345e-05    1.545e-05  
   -0.65000     5.360e-05    1.501e-05  
   -0.66000     5.374e-05    1.459e-05  
   -0.67000     5.388e-05    1.421e-05  
   -0.68000     5.402e-05    1.385e-05  
   -0.69000     5.415e-05    1.352e-05  
   -0.70000     5.428e-05    1.320e-05  
   -0.71000     5.440e-05    1.291e-05  
   -0.72000     5.453e-05    1.263e-05  
   -0.73000     5.465e-05    1.237e-05  
   -0.74000     5.477e-05    1.213e-05  
   -0.75000     5.488e-05    1.190e-05  
   -0.76000     5.500e-05    1.169e-05  
   -0.77000     5.511e-05    1.148e-05  
   -0.78000     5.522e-05    1.129e-05  
   -0.79000     5.533e-05    1.112e-05  
   -0.80000     5.544e-05    1.095e-05  
   -0.81000     5.555e-05    1.079e-05  
   -0.82000     5.565e-05    1.064e-05  
   -0.83000     5.576e-05    1.050e-05  
   -0.84000     5.586e-05    1.036e-05  
   -0.85000     5.596e-05    1.024e-05  
   -0.86000     5.606e-05    1.012e-05  
   -0.87000     5.616e-05    1.000e-05  
   -0.88000     5.626e-05    9.895e-06  
   -0.89000     5.635e-05    9.793e-06  
   -0.90000     5.645e-05    9.697e-06  
   -0.91000     5.654e-05    9.605e-06  
   -0.92000     5.664e-05    9.518e-06  
   -0.93000     5.673e-05    9.435e-06  
   -0.94000     5.683e-05    9.357e-06  
   -0.95000     5.692e-05    9.282e-06  
   -0.96000     5.701e-05    9.211e-06  
   -0.97000     5.710e-05    9.143e-06  
   -0.98000     5.719e-05    9.079e-06  
   -0.99000     5.728e-05    9.017e-06  
   -1.00000     5.737e-05    8.958e-06  
y
-----------------------------------------------

          ***** job concluded
1****** HSPICE -- G-2012.06 32-BIT (May 27 2012) RHEL32 ******                  
 ******  
 *sample netlist for bsim-mg

  ******  job statistics summary tnom=  25.000 temp= 100.000 *****
  
  
 ******  Machine Information  ******
 CPU:
 model name	: Intel(R) Xeon(R) CPU E5-2643 0 @ 3.30GHz
 cpu MHz	: 3299.813
  
 OS:
 Linux version 2.6.32-573.7.1.el6.x86_64 (mockbuild@x86-031.build.eng.bos.redhat.com) (gcc version 4.4.7 20120313 (Red Hat 4.4.7-16) (GCC) ) #1 SMP Thu Sep 10 13:42:16 EDT 2015


  ******  HSPICE Threads Information  ******

  Command Line Threads Count :     1
  Available CPU Count        :     8
  Actual Threads Count       :     1


  ******  Circuit Statistics  ******
  # nodes       =       9 # elements   =       4
  # resistors   =       0 # capacitors =       0 # inductors   =       0
  # mutual_inds =       0 # vccs       =       0 # vcvs        =       0
  # cccs        =       0 # ccvs       =       0 # volt_srcs   =       3
  # curr_srcs   =       0 # diodes     =       0 # bjts        =       0
  # jfets       =       0 # mosfets    =       0 # U elements  =       0
  # T elements  =       0 # W elements =       0 # B elements  =       0
  # S elements  =       0 # P elements =       0 # va device   =       1
  # vector_srcs =       0 # N elements =       0


  ******  Runtime Statistics (seconds)  ******

  analysis           time    # points   tot. iter  conv.iter
  op point           0.00           1           0
  dc sweep           0.17        1111        2243
  readin             0.00
  errchk             0.06
  setup              0.00
  output             0.00


           peak memory used        119.28 megabytes
           total cpu time            0.24 seconds
           total elapsed time        0.24 seconds
           job started at     08:27:57 12/31/2015
           job ended   at     08:28:06 12/31/2015


 lic: Release hspice token(s) 
 lic: total license checkout elapse time:        0.21(s)
