 ****** HSPICE -- G-2012.06 32-BIT (May 27 2012) RHEL32 ******                  
  Copyright (C) 2012 Synopsys, Inc. All Rights Reserved.                        
  Unpublished-rights reserved under US copyright laws.
  This program is protected by law and is subject to the
  terms and conditions of the license agreement from Synopsys.
  Use of this program is your acceptance to be bound by the
  license agreement. HSPICE is the trademark of Synopsys, Inc.
  Input File: ringosc_17stg.sp                                                  
  Command line options: -hdlpath ../code -i ringosc_17stg.sp -o ringosc_17stg
 lic:  
 lic: FLEXlm: v10.8 
 lic: USER:   sourabh              HOSTNAME: bwrcr720-2.eecs.berkeley.edu 
 lic: HOSTID:                      PID:      15242 
 lic: Using FLEXlm license file: 
 lic: 1701@sunv40z-1.eecs.berkeley.edu 
 lic: Checkout 1 hspice 
 lic: License/Maintenance for hspice will expire on 18-nov-2016/2015.06 
 lic: 1(in_use)/50(total) FLOATING license(s) on SERVER sunv40z-1.eecs.berkeley.
 lic:   
 Init: read install configuration file: /tools/synopsys/hspice/G-2012.06/hspice/meta.cfg
 **info** *pvaI* Module (bsimcmg): 5 unexpanded port, 0 init, 2015 behav, 64 contrib, 49/3015 expr(s)

 **info** *pvaI* Resizing DB size for v count = 1

 **info** *pvaI* Resizing DB size for v count = 2

 **info** *pvaI*        Has DIS (PC SB), 5 afCount

 **info** *pvaI*        0 const-G and 0 const-C, Has switch branch.

 **info** *pvaI* Module (bsimcmg): generated 4 flow node(s) during compilation.

 **info** *pvaI* #### Total 762 line-size(s), 49 expr(s), 64 contr(s), 0 init(s), 2015 behav(s), 5 port(s)

  **warning** (ringosc_17stg.sp:15) Global net name, "gnd", in subckt pin list. The pin will be connected to the local net. Recommend to not use global net names in subckt pin lists.
 Loading pVA library ringosc_17stg.pvadir/pvaRTL_linux.so...
1****** HSPICE -- G-2012.06 32-BIT (May 27 2012) RHEL32 ******                  
 ******  
 *sample netlist for bsim-mg

  ******  circuit name directory
 circuit number to circuit name directory
   number circuitname                     definition         multiplier
        0 main circuit
        1 xinv1.                          mg_inv             1.00 
        2 xinv2.                          mg_inv             1.00 
        3 xinv3.                          mg_inv             1.00 
        4 xinv4.                          mg_inv             1.00 
        5 xinv5.                          mg_inv             1.00 
        6 xinv6.                          mg_inv             1.00 
        7 xinv7.                          mg_inv             1.00 
        8 xinv8.                          mg_inv             1.00 
        9 xinv9.                          mg_inv             1.00 
       10 xinv10.                         mg_inv             1.00 
       11 xinv11.                         mg_inv             1.00 
       12 xinv12.                         mg_inv             1.00 
       13 xinv13.                         mg_inv             1.00 
       14 xinv14.                         mg_inv             1.00 
       15 xinv15.                         mg_inv             1.00 
       16 xinv16.                         mg_inv             1.00 
       17 xinv17.                         mg_inv             1.00 
       18 xinv1.xp1.                      bsimcmg(va)        1.00 
       19 xinv1.xn1.                      bsimcmg(va)        1.00 
       20 xinv2.xp1.                      bsimcmg(va)        1.00 
       21 xinv2.xn1.                      bsimcmg(va)        1.00 
       22 xinv3.xp1.                      bsimcmg(va)        1.00 
       23 xinv3.xn1.                      bsimcmg(va)        1.00 
       24 xinv4.xp1.                      bsimcmg(va)        1.00 
       25 xinv4.xn1.                      bsimcmg(va)        1.00 
       26 xinv5.xp1.                      bsimcmg(va)        1.00 
       27 xinv5.xn1.                      bsimcmg(va)        1.00 
       28 xinv6.xp1.                      bsimcmg(va)        1.00 
       29 xinv6.xn1.                      bsimcmg(va)        1.00 
       30 xinv7.xp1.                      bsimcmg(va)        1.00 
       31 xinv7.xn1.                      bsimcmg(va)        1.00 
       32 xinv8.xp1.                      bsimcmg(va)        1.00 
       33 xinv8.xn1.                      bsimcmg(va)        1.00 
       34 xinv9.xp1.                      bsimcmg(va)        1.00 
       35 xinv9.xn1.                      bsimcmg(va)        1.00 
       36 xinv10.xp1.                     bsimcmg(va)        1.00 
       37 xinv10.xn1.                     bsimcmg(va)        1.00 
       38 xinv11.xp1.                     bsimcmg(va)        1.00 
       39 xinv11.xn1.                     bsimcmg(va)        1.00 
       40 xinv12.xp1.                     bsimcmg(va)        1.00 
       41 xinv12.xn1.                     bsimcmg(va)        1.00 
       42 xinv13.xp1.                     bsimcmg(va)        1.00 
       43 xinv13.xn1.                     bsimcmg(va)        1.00 
       44 xinv14.xp1.                     bsimcmg(va)        1.00 
       45 xinv14.xn1.                     bsimcmg(va)        1.00 
       46 xinv15.xp1.                     bsimcmg(va)        1.00 
       47 xinv15.xn1.                     bsimcmg(va)        1.00 
       48 xinv16.xp1.                     bsimcmg(va)        1.00 
       49 xinv16.xn1.                     bsimcmg(va)        1.00 
       50 xinv17.xp1.                     bsimcmg(va)        1.00 
       51 xinv17.xn1.                     bsimcmg(va)        1.00 
 **info** *pvaI* Creating Verilog-A module 'bsimcmg' for XINV17.XN1

 **info** *pvaI* Creating Verilog-A module 'bsimcmg' for XINV17.XP1

  
      
 *****************************************************************
 ******  option summary
 ******
 runlvl  = 3         bypass  = 2         
  Opening plot unit= 15
 file=ringosc_17stg.pa0                                                        

 **warning** Due to a floating point overflow problem,
             the damped pseudo-tran method was used.

  *** initial damped pseudo transient completed. ***
  *** final try started ***
  *** final try succeeded *** 
1****** HSPICE -- G-2012.06 32-BIT (May 27 2012) RHEL32 ******                  
 ******  
 *sample netlist for bsim-mg

  ******  operating point information tnom=  25.000 temp=  25.000 *****
 ***** operating point status is voltage   simulation time is     0.     
     node    =voltage       node    =voltage       node    =voltage

 + 0:1       =   1.0000   0:2       = 2.585e-08  0:3       =   1.0000 
 + 0:4       = 2.585e-08  0:5       =   1.0000   0:6       = 2.585e-08
 + 0:7       =   1.0000   0:8       = 2.585e-08  0:9       =   1.0000 
 + 0:10      = 2.585e-08  0:11      =   1.0000   0:12      = 2.585e-08
 + 0:13      =   1.0000   0:14      = 2.585e-08  0:15      =   1.0000 
 + 0:16      = 2.585e-08  0:17      =   1.0000   0:supply  =   1.0000 

 ******  
 *sample netlist for bsim-mg

  ******  transient analysis tnom=  25.000 temp=  25.000 *****
x

        time    voltage    
                     1     
    0.            1.0000   
  1.0000e-12      0.7607   
  2.0000e-12      0.3764   
  3.0000e-12      0.1221   
  4.0000e-12    5.187e-02  
  5.0000e-12    3.859e-02  
  6.0000e-12    3.074e-02  
  7.0000e-12    1.893e-02  
  8.0000e-12    1.161e-02  
  9.0000e-12    7.009e-03  
  1.0000e-11    5.835e-03  
  1.1000e-11    6.870e-03  
  1.2000e-11    5.493e-03  
  1.3000e-11    3.979e-03  
  1.4000e-11    2.920e-03  
  1.5000e-11    2.155e-03  
  1.6000e-11    1.638e-03  
  1.7000e-11    1.244e-03  
  1.8000e-11    8.953e-04  
  1.9000e-11    6.267e-04  
  2.0000e-11    4.518e-04  
  2.1000e-11    3.297e-04  
  2.2000e-11    2.487e-04  
  2.3000e-11    1.834e-04  
  2.4000e-11    1.360e-04  
  2.5000e-11    9.861e-05  
  2.6000e-11    7.437e-05  
  2.7000e-11    5.515e-05  
  2.8000e-11    4.160e-05  
  2.9000e-11    3.016e-05  
  3.0000e-11    2.250e-05  
  3.1000e-11    1.661e-05  
  3.2000e-11    1.262e-05  
  3.3000e-11    9.354e-06  
  3.4000e-11    7.095e-06  
  3.5000e-11    5.383e-06  
  3.6000e-11    3.593e-06  
  3.7000e-11   -2.539e-06  
  3.8000e-11   -8.701e-07  
  3.9000e-11   -1.238e-06  
  4.0000e-11    1.255e-05  
  4.1000e-11    8.017e-05  
  4.2000e-11    1.416e-05  
  4.3000e-11   -1.417e-04  
  4.4000e-11   -2.938e-04  
  4.5000e-11   -4.737e-04  
  4.6000e-11   -1.917e-04  
  4.7000e-11    1.601e-03  
  4.8000e-11    4.111e-03  
  4.9000e-11    2.570e-03  
  5.0000e-11   -9.252e-03  
  5.1000e-11   -2.647e-02  
  5.2000e-11   -5.662e-02  
  5.3000e-11   -1.805e-02  
  5.4000e-11      0.1289   
  5.5000e-11      0.4079   
  5.6000e-11      0.6310   
  5.7000e-11      0.7698   
  5.8000e-11      0.8311   
  5.9000e-11      0.8679   
  6.0000e-11      0.8889   
  6.1000e-11      0.9142   
  6.2000e-11      0.9364   
  6.3000e-11      0.9544   
  6.4000e-11      0.9657   
  6.5000e-11      0.9747   
  6.6000e-11      0.9814   
  6.7000e-11      0.9866   
  6.8000e-11      0.9907   
  6.9000e-11      0.9933   
  7.0000e-11      0.9949   
  7.1000e-11      0.9962   
  7.2000e-11      0.9972   
  7.3000e-11      0.9979   
  7.4000e-11      0.9985   
  7.5000e-11      0.9989   
  7.6000e-11      0.9992   
  7.7000e-11      0.9994   
  7.8000e-11      0.9995   
  7.9000e-11      0.9997   
  8.0000e-11      0.9997   
  8.1000e-11      0.9998   
  8.2000e-11      0.9999   
  8.3000e-11      0.9999   
  8.4000e-11      0.9999   
  8.5000e-11      0.9999   
  8.6000e-11      0.9999   
  8.7000e-11      1.0000   
  8.8000e-11      1.0000   
  8.9000e-11      1.0000   
  9.0000e-11      1.0000   
  9.1000e-11      1.0000   
  9.2000e-11      1.0000   
  9.3000e-11      1.0000   
  9.4000e-11      1.0000   
  9.5000e-11      1.0000   
  9.6000e-11      1.0000   
  9.7000e-11      1.0000   
  9.8000e-11      1.0002   
  9.9000e-11      1.0005   
  1.0000e-10      0.9998   
  1.0100e-10      0.9983   
  1.0200e-10      0.9963   
  1.0300e-10      0.9976   
  1.0400e-10      1.0042   
  1.0500e-10      1.0261   
  1.0600e-10      1.0272   
  1.0700e-10      0.9849   
  1.0800e-10      0.8595   
  1.0900e-10      0.5861   
  1.1000e-10      0.3142   
  1.1100e-10      0.1025   
  1.1200e-10    5.200e-02  
  1.1300e-10    4.185e-02  
  1.1400e-10    3.091e-02  
  1.1500e-10    1.957e-02  
  1.1600e-10    1.100e-02  
  1.1700e-10    7.620e-03  
  1.1800e-10    7.595e-03  
  1.1900e-10    6.920e-03  
  1.2000e-10    5.906e-03  
  1.2100e-10    4.161e-03  
  1.2200e-10    2.918e-03  
  1.2300e-10    2.184e-03  
  1.2400e-10    1.648e-03  
  1.2500e-10    1.231e-03  
  1.2600e-10    8.858e-04  
  1.2700e-10    6.108e-04  
  1.2800e-10    4.462e-04  
  1.2900e-10    3.392e-04  
  1.3000e-10    2.514e-04  
  1.3100e-10    1.822e-04  
  1.3200e-10    1.327e-04  
  1.3300e-10    9.719e-05  
  1.3400e-10    7.381e-05  
  1.3500e-10    5.634e-05  
  1.3600e-10    4.028e-05  
  1.3700e-10    3.003e-05  
  1.3800e-10    2.241e-05  
  1.3900e-10    1.657e-05  
  1.4000e-10    1.220e-05  
  1.4100e-10    9.124e-06  
  1.4200e-10    7.338e-06  
  1.4300e-10    5.936e-06  
  1.4400e-10      0.       
  1.4500e-10   -8.192e-07  
  1.4600e-10      0.       
  1.4700e-10   -9.679e-06  
  1.4800e-10    3.838e-05  
  1.4900e-10    7.573e-05  
  1.5000e-10   -2.728e-05  
  1.5100e-10   -1.889e-04  
  1.5200e-10   -3.578e-04  
  1.5300e-10   -4.637e-04  
  1.5400e-10    5.579e-04  
  1.5500e-10    1.824e-03  
  1.5600e-10    3.484e-03  
  1.5700e-10    4.945e-05  
  1.5800e-10   -1.402e-02  
  1.5900e-10   -3.293e-02  
  1.6000e-10    1.346e-02  
  1.6100e-10    6.384e-02  
  1.6200e-10      0.2219   
  1.6300e-10      0.4618   
  1.6400e-10      0.6936   
  1.6500e-10      0.7887   
  1.6600e-10      0.8433   
  1.6700e-10      0.8727   
  1.6800e-10      0.8947   
  1.6900e-10      0.9210   
  1.7000e-10      0.9420   
  1.7100e-10      0.9577   
  1.7200e-10      0.9686   
  1.7300e-10      0.9763   
  1.7400e-10      0.9831   
  1.7500e-10      0.9880   
  1.7600e-10      0.9914   
  1.7700e-10      0.9936   
  1.7800e-10      0.9953   
  1.7900e-10      0.9964   
  1.8000e-10      0.9974   
  1.8100e-10      0.9981   
  1.8200e-10      0.9986   
  1.8300e-10      0.9990   
  1.8400e-10      0.9992   
  1.8500e-10      0.9994   
  1.8600e-10      0.9996   
  1.8700e-10      0.9997   
  1.8800e-10      0.9998   
  1.8900e-10      0.9998   
  1.9000e-10      0.9999   
  1.9100e-10      0.9999   
  1.9200e-10      0.9999   
  1.9300e-10      0.9999   
  1.9400e-10      0.9999   
  1.9500e-10      1.0000   
  1.9600e-10      1.0000   
  1.9700e-10      1.0000   
  1.9800e-10      1.0000   
  1.9900e-10      1.0000   
  2.0000e-10      1.0000   
  2.0100e-10      1.0000   
  2.0200e-10      1.0000   
  2.0300e-10      1.0000   
  2.0400e-10      1.0000   
  2.0500e-10      1.0001   
  2.0600e-10      1.0002   
  2.0700e-10      1.0004   
  2.0800e-10      0.9996   
  2.0900e-10      0.9980   
  2.1000e-10      0.9957   
  2.1100e-10      0.9987   
  2.1200e-10      1.0055   
  2.1300e-10      1.0302   
  2.1400e-10      1.0206   
  2.1500e-10      0.9573   
  2.1600e-10      0.8239   
  2.1700e-10      0.5177   
  2.1800e-10      0.2690   
  2.1900e-10    8.826e-02  
  2.2000e-10    4.889e-02  
  2.2100e-10    3.994e-02  
  2.2200e-10    2.804e-02  
  2.2300e-10    1.771e-02  
  2.2400e-10    1.029e-02  
  2.2500e-10    7.594e-03  
  2.2600e-10    7.852e-03  
  2.2700e-10    6.771e-03  
  2.2800e-10    5.223e-03  
  2.2900e-10    3.801e-03  
  2.3000e-10    2.700e-03  
  2.3100e-10    2.082e-03  
  2.3200e-10    1.583e-03  
  2.3300e-10    1.156e-03  
  2.3400e-10    8.253e-04  
  2.3500e-10    5.852e-04  
  2.3600e-10    4.353e-04  
  2.3700e-10    3.228e-04  
  2.3800e-10    2.379e-04  
  2.3900e-10    1.713e-04  
  2.4000e-10    1.241e-04  
  2.4100e-10    9.210e-05  
  2.4200e-10    6.968e-05  
  2.4300e-10    5.245e-05  
  2.4400e-10    3.808e-05  
  2.4500e-10    2.807e-05  
  2.4600e-10    2.091e-05  
  2.4700e-10    1.568e-05  
  2.4800e-10    1.163e-05  
  2.4900e-10    8.505e-06  
  2.5000e-10    7.340e-06  
  2.5100e-10    4.119e-06  
  2.5200e-10      0.       
  2.5300e-10   -1.167e-06  
  2.5400e-10    1.918e-06  
  2.5500e-10   -1.544e-06  
  2.5600e-10    4.314e-05  
  2.5700e-10    7.113e-05  
  2.5800e-10   -6.001e-05  
  2.5900e-10   -2.322e-04  
  2.6000e-10   -3.584e-04  
  2.6100e-10   -4.905e-04  
  2.6200e-10    5.450e-04  
  2.6300e-10    3.667e-03  
  2.6400e-10    4.209e-03  
  2.6500e-10   -3.581e-03  
  2.6600e-10   -1.858e-02  
  2.6700e-10   -4.536e-02  
  2.6800e-10   -3.150e-02  
  2.6900e-10    3.421e-02  
  2.7000e-10      0.2836   
  2.7100e-10      0.5381   
  2.7200e-10      0.7167   
  2.7300e-10      0.8108   
  2.7400e-10      0.8548   
  2.7500e-10      0.8791   
  2.7600e-10      0.9029   
  2.7700e-10      0.9263   
  2.7800e-10      0.9467   
  2.7900e-10      0.9614   
  2.8000e-10      0.9710   
  2.8100e-10      0.9787   
  2.8200e-10      0.9843   
  2.8300e-10      0.9889   
  2.8400e-10      0.9919   
  2.8500e-10      0.9941   
  2.8600e-10      0.9956   
  2.8700e-10      0.9967   
  2.8800e-10      0.9976   
  2.8900e-10      0.9982   
  2.9000e-10      0.9987   
  2.9100e-10      0.9990   
  2.9200e-10      0.9993   
  2.9300e-10      0.9995   
  2.9400e-10      0.9996   
  2.9500e-10      0.9997   
  2.9600e-10      0.9998   
  2.9700e-10      0.9998   
  2.9800e-10      0.9999   
  2.9900e-10      0.9999   
  3.0000e-10      0.9999   
  3.0100e-10      0.9999   
  3.0200e-10      1.0000   
  3.0300e-10      1.0000   
  3.0400e-10      1.0000   
  3.0500e-10      1.0000   
  3.0600e-10      1.0000   
  3.0700e-10      1.0000   
  3.0800e-10      1.0000   
  3.0900e-10      1.0000   
  3.1000e-10      1.0000   
  3.1100e-10      1.0000   
  3.1200e-10      0.9999   
  3.1300e-10      1.0001   
  3.1400e-10      1.0004   
  3.1500e-10      1.0003   
  3.1600e-10      0.9991   
  3.1700e-10      0.9976   
  3.1800e-10      0.9979   
  3.1900e-10      1.0011   
  3.2000e-10      1.0093   
  3.2100e-10      1.0298   
  3.2200e-10      1.0201   
  3.2300e-10      0.9403   
  3.2400e-10      0.7733   
  3.2500e-10      0.4665   
  3.2600e-10      0.2261   
  3.2700e-10    8.191e-02  
  3.2800e-10    4.804e-02  
  3.2900e-10    3.756e-02  
  3.3000e-10    2.649e-02  
  3.3100e-10    1.584e-02  
  3.3200e-10    9.553e-03  
  3.3300e-10    7.717e-03  
  3.3400e-10    7.515e-03  
  3.3500e-10    6.567e-03  
  3.3600e-10    4.939e-03  
  3.3700e-10    3.524e-03  
  3.3800e-10    2.578e-03  
  3.3900e-10    1.988e-03  
  3.4000e-10    1.510e-03  
  3.4100e-10    1.090e-03  
  3.4200e-10    7.788e-04  
  3.4300e-10    5.527e-04  
  3.4400e-10    4.123e-04  
  3.4500e-10    3.022e-04  
  3.4600e-10    2.268e-04  
  3.4700e-10    1.642e-04  
  3.4800e-10    1.206e-04  
  3.4900e-10    8.896e-05  
  3.5000e-10    6.744e-05  
  3.5100e-10    5.131e-05  
  3.5200e-10    3.608e-05  
  3.5300e-10    2.676e-05  
  3.5400e-10    2.001e-05  
  3.5500e-10    1.475e-05  
  3.5600e-10    1.091e-05  
  3.5700e-10    8.463e-06  
  3.5800e-10    6.252e-06  
  3.5900e-10    4.340e-06  
  3.6000e-10      0.       
  3.6100e-10   -1.656e-06  
  3.6200e-10   -7.034e-07  
  3.6300e-10   -2.962e-06  
  3.6400e-10    5.912e-05  
  3.6500e-10    7.252e-05  
  3.6600e-10   -8.122e-05  
  3.6700e-10   -2.701e-04  
  3.6800e-10   -3.317e-04  
  3.6900e-10   -3.716e-04  
  3.7000e-10    1.730e-04  
  3.7100e-10    3.910e-03  
  3.7200e-10    4.132e-03  
  3.7300e-10   -4.134e-03  
  3.7400e-10   -1.927e-02  
  3.7500e-10   -4.315e-02  
  3.7600e-10   -4.059e-02  
  3.7700e-10    5.522e-02  
  3.7800e-10      0.2854   
  3.7900e-10      0.5474   
  3.8000e-10      0.7218   
  3.8100e-10      0.8134   
  3.8200e-10      0.8542   
  3.8300e-10      0.8796   
  3.8400e-10      0.9041   
  3.8500e-10      0.9268   
  3.8600e-10      0.9473   
  3.8700e-10      0.9619   
  3.8800e-10      0.9715   
  3.8900e-10      0.9789   
  3.9000e-10      0.9843   
  3.9100e-10      0.9889   
  3.9200e-10      0.9919   
  3.9300e-10      0.9941   
  3.9400e-10      0.9956   
  3.9500e-10      0.9967   
  3.9600e-10      0.9976   
  3.9700e-10      0.9983   
  3.9800e-10      0.9987   
  3.9900e-10      0.9990   
  4.0000e-10      0.9993   
  4.0100e-10      0.9994   
  4.0200e-10      0.9996   
  4.0300e-10      0.9997   
  4.0400e-10      0.9998   
  4.0500e-10      0.9998   
  4.0600e-10      0.9999   
  4.0700e-10      0.9999   
  4.0800e-10      0.9999   
  4.0900e-10      0.9999   
  4.1000e-10      1.0000   
  4.1100e-10      1.0000   
  4.1200e-10      1.0000   
  4.1300e-10      1.0000   
  4.1400e-10      1.0000   
  4.1500e-10      1.0000   
  4.1600e-10      1.0000   
  4.1700e-10      1.0000   
  4.1800e-10      1.0000   
  4.1900e-10      1.0000   
  4.2000e-10      0.9999   
  4.2100e-10      1.0001   
  4.2200e-10      1.0005   
  4.2300e-10      1.0001   
  4.2400e-10      0.9991   
  4.2500e-10      0.9973   
  4.2600e-10      0.9952   
  4.2700e-10      1.0016   
  4.2800e-10      1.0101   
  4.2900e-10      1.0267   
  4.3000e-10      1.0211   
  4.3100e-10      0.9379   
  4.3200e-10      0.7762   
  4.3300e-10      0.4714   
  4.3400e-10      0.2105   
  4.3500e-10    6.741e-02  
  4.3600e-10    4.407e-02  
  4.3700e-10    3.750e-02  
  4.3800e-10    2.658e-02  
  4.3900e-10    1.677e-02  
  4.4000e-10    1.033e-02  
  4.4100e-10    6.237e-03  
  4.4200e-10    6.709e-03  
  4.4300e-10    6.102e-03  
  4.4400e-10    4.919e-03  
  4.4500e-10    3.485e-03  
  4.4600e-10    2.611e-03  
  4.4700e-10    1.983e-03  
  4.4800e-10    1.497e-03  
  4.4900e-10    1.112e-03  
  4.5000e-10    7.536e-04  
  4.5100e-10    5.408e-04  
  4.5200e-10    4.031e-04  
  4.5300e-10    3.013e-04  
  4.5400e-10    2.225e-04  
  4.5500e-10    1.677e-04  
  4.5600e-10    1.202e-04  
  4.5700e-10    8.947e-05  
  4.5800e-10    6.701e-05  
  4.5900e-10    5.071e-05  
  4.6000e-10    3.694e-05  
  4.6100e-10    2.665e-05  
  4.6200e-10    1.982e-05  
  4.6300e-10    1.478e-05  
  4.6400e-10    1.122e-05  
  4.6500e-10    8.697e-06  
  4.6600e-10    6.178e-06  
  4.6700e-10    4.083e-06  
  4.6800e-10    1.139e-06  
  4.6900e-10   -2.173e-06  
  4.7000e-10    6.345e-07  
  4.7100e-10      0.       
  4.7200e-10    3.948e-05  
  4.7300e-10    8.200e-05  
  4.7400e-10   -7.751e-05  
  4.7500e-10   -2.484e-04  
  4.7600e-10   -3.820e-04  
  4.7700e-10   -4.984e-04  
  4.7800e-10    1.051e-03  
  4.7900e-10    2.561e-03  
  4.8000e-10    2.609e-03  
  4.8100e-10   -3.955e-03  
  4.8200e-10   -1.861e-02  
  4.8300e-10   -4.023e-02  
  4.8400e-10   -7.035e-02  
  4.8500e-10    4.462e-02  
  4.8600e-10      0.2938   
  4.8700e-10      0.5518   
  4.8800e-10      0.7232   
  4.8900e-10      0.8132   
  4.9000e-10      0.8580   
  4.9100e-10      0.8801   
  4.9200e-10      0.9038   
  4.9300e-10      0.9278   
  4.9400e-10      0.9485   
  4.9500e-10      0.9615   
  4.9600e-10      0.9713   
  4.9700e-10      0.9790   
  4.9800e-10      0.9848   
  4.9900e-10      0.9890   
  5.0000e-10      0.9920   
  5.0100e-10      0.9941   
  5.0200e-10      0.9956   
  5.0300e-10      0.9968   
  5.0400e-10      0.9976   
  5.0500e-10      0.9982   
  5.0600e-10      0.9987   
  5.0700e-10      0.9990   
  5.0800e-10      0.9993   
  5.0900e-10      0.9994   
  5.1000e-10      0.9996   
  5.1100e-10      0.9997   
  5.1200e-10      0.9998   
  5.1300e-10      0.9998   
  5.1400e-10      0.9999   
  5.1500e-10      0.9999   
  5.1600e-10      0.9999   
  5.1700e-10      0.9999   
  5.1800e-10      1.0000   
  5.1900e-10      1.0000   
  5.2000e-10      1.0000   
  5.2100e-10      1.0000   
  5.2200e-10      1.0000   
  5.2300e-10      1.0000   
  5.2400e-10      1.0000   
  5.2500e-10      1.0000   
  5.2600e-10      1.0000   
  5.2700e-10      1.0000   
  5.2800e-10      0.9999   
  5.2900e-10      1.0002   
  5.3000e-10      1.0004   
  5.3100e-10      1.0001   
  5.3200e-10      0.9989   
  5.3300e-10      0.9971   
  5.3400e-10      0.9961   
  5.3500e-10      1.0033   
  5.3600e-10      1.0123   
  5.3700e-10      1.0277   
  5.3800e-10      1.0106   
  5.3900e-10      0.9224   
  5.4000e-10      0.7387   
  5.4100e-10      0.4136   
  5.4200e-10      0.1874   
  5.4300e-10    5.515e-02  
  5.4400e-10    4.353e-02  
  5.4500e-10    3.703e-02  
  5.4600e-10    2.382e-02  
  5.4700e-10    1.541e-02  
  5.4800e-10    7.891e-03  
  5.4900e-10    7.020e-03  
  5.5000e-10    7.059e-03  
  5.5100e-10    6.130e-03  
  5.5200e-10    4.606e-03  
  5.5300e-10    3.343e-03  
  5.5400e-10    2.439e-03  
  5.5500e-10    1.893e-03  
  5.5600e-10    1.435e-03  
  5.5700e-10    1.053e-03  
  5.5800e-10    7.076e-04  
  5.5900e-10    5.216e-04  
  5.6000e-10    3.866e-04  
  5.6100e-10    2.902e-04  
  5.6200e-10    2.131e-04  
  5.6300e-10    1.572e-04  
  5.6400e-10    1.150e-04  
  5.6500e-10    8.649e-05  
  5.6600e-10    6.376e-05  
  5.6700e-10    4.813e-05  
  5.6800e-10    3.486e-05  
  5.6900e-10    2.587e-05  
  5.7000e-10    1.912e-05  
  5.7100e-10    1.441e-05  
  5.7200e-10    1.069e-05  
  5.7300e-10    7.720e-06  
  5.7400e-10    6.725e-06  
  5.7500e-10    3.226e-06  
  5.7600e-10   -6.652e-07  
  5.7700e-10   -1.167e-06  
  5.7800e-10    1.752e-06  
  5.7900e-10    4.085e-06  
  5.8000e-10    6.908e-05  
  5.8100e-10    5.118e-05  
  5.8200e-10   -1.103e-04  
  5.8300e-10   -2.786e-04  
  5.8400e-10   -4.150e-04  
  5.8500e-10   -5.461e-05  
  5.8600e-10    1.197e-03  
  5.8700e-10    2.717e-03  
  5.8800e-10    3.613e-03  
  5.8900e-10   -7.129e-03  
  5.9000e-10   -2.363e-02  
  5.9100e-10   -1.853e-03  
  5.9200e-10    6.663e-02  
  5.9300e-10      0.1351   
  5.9400e-10      0.3443   
  5.9500e-10      0.5713   
  5.9600e-10      0.7523   
  5.9700e-10      0.8244   
  5.9800e-10      0.8591   
  5.9900e-10      0.8844   
  6.0000e-10      0.9064   
  6.0100e-10      0.9321   
  6.0200e-10      0.9504   
  6.0300e-10      0.9635   
  6.0400e-10      0.9733   
  6.0500e-10      0.9799   
  6.0600e-10      0.9857   
  6.0700e-10      0.9899   
  6.0800e-10      0.9926   
  6.0900e-10      0.9945   
  6.1000e-10      0.9959   
  6.1100e-10      0.9970   
  6.1200e-10      0.9978   
  6.1300e-10      0.9984   
  6.1400e-10      0.9988   
  6.1500e-10      0.9991   
  6.1600e-10      0.9993   
  6.1700e-10      0.9995   
  6.1800e-10      0.9996   
  6.1900e-10      0.9997   
  6.2000e-10      0.9998   
  6.2100e-10      0.9998   
  6.2200e-10      0.9999   
  6.2300e-10      0.9999   
  6.2400e-10      0.9999   
  6.2500e-10      0.9999   
  6.2600e-10      1.0000   
  6.2700e-10      1.0000   
  6.2800e-10      1.0000   
  6.2900e-10      1.0000   
  6.3000e-10      1.0000   
  6.3100e-10      1.0000   
  6.3200e-10      1.0000   
  6.3300e-10      1.0000   
  6.3400e-10      1.0000   
  6.3500e-10      0.9999   
  6.3600e-10      1.0000   
  6.3700e-10      1.0002   
  6.3800e-10      1.0005   
  6.3900e-10      0.9999   
  6.4000e-10      0.9986   
  6.4100e-10      0.9968   
  6.4200e-10      0.9969   
  6.4300e-10      1.0049   
  6.4400e-10      1.0182   
  6.4500e-10      1.0356   
  6.4600e-10      0.9930   
  6.4700e-10      0.8859   
  6.4800e-10      0.7130   
  6.4900e-10      0.4157   
  6.5000e-10      0.1642   
  6.5100e-10    6.525e-02  
  6.5200e-10    3.921e-02  
  6.5300e-10    3.412e-02  
  6.5400e-10    2.355e-02  
  6.5500e-10    1.325e-02  
  6.5600e-10    8.506e-03  
  6.5700e-10    7.551e-03  
  6.5800e-10    7.505e-03  
  6.5900e-10    6.153e-03  
  6.6000e-10    4.387e-03  
  6.6100e-10    3.194e-03  
  6.6200e-10    2.413e-03  
  6.6300e-10    1.825e-03  
  6.6400e-10    1.375e-03  
  6.6500e-10    9.853e-04  
  6.6600e-10    7.040e-04  
  6.6700e-10    5.084e-04  
  6.6800e-10    3.718e-04  
  6.6900e-10    2.785e-04  
  6.7000e-10    2.045e-04  
  6.7100e-10    1.513e-04  
  6.7200e-10    1.095e-04  
  6.7300e-10    8.230e-05  
  6.7400e-10    6.119e-05  
  6.7500e-10    4.541e-05  
  6.7600e-10    3.363e-05  
  6.7700e-10    2.469e-05  
  6.7800e-10    1.841e-05  
  6.7900e-10    1.370e-05  
  6.8000e-10    9.983e-06  
  6.8100e-10    8.115e-06  
  6.8200e-10    5.957e-06  
  6.8300e-10    2.568e-06  
  6.8400e-10   -1.595e-06  
  6.8500e-10      0.       
  6.8600e-10    1.449e-06  
  6.8700e-10    2.549e-06  
  6.8800e-10    7.761e-05  
  6.8900e-10    2.758e-05  
  6.9000e-10   -1.504e-04  
  6.9100e-10   -3.021e-04  
  6.9200e-10   -4.586e-04  
  6.9300e-10   -6.044e-04  
  6.9400e-10    2.169e-03  
  6.9500e-10    5.058e-03  
  6.9600e-10    4.762e-04  
  6.9700e-10   -1.031e-02  
  6.9800e-10   -3.021e-02  
  6.9900e-10   -3.319e-02  
  7.0000e-10   -9.318e-03  
  7.0100e-10      0.1586   
  7.0200e-10      0.3996   
  7.0300e-10      0.6450   
  7.0400e-10      0.7748   
  7.0500e-10      0.8359   
  7.0600e-10      0.8670   
  7.0700e-10      0.8886   
  7.0800e-10      0.9142   
  7.0900e-10      0.9377   
  7.1000e-10      0.9546   
  7.1100e-10      0.9664   
  7.1200e-10      0.9752   
  7.1300e-10      0.9818   
  7.1400e-10      0.9868   
  7.1500e-10      0.9905   
  7.1600e-10      0.9931   
  7.1700e-10      0.9948   
  7.1800e-10      0.9961   
  7.1900e-10      0.9972   
  7.2000e-10      0.9979   
  7.2100e-10      0.9985   
  7.2200e-10      0.9988   
  7.2300e-10      0.9991   
  7.2400e-10      0.9994   
  7.2500e-10      0.9995   
  7.2600e-10      0.9996   
  7.2700e-10      0.9997   
  7.2800e-10      0.9998   
  7.2900e-10      0.9999   
  7.3000e-10      0.9999   
  7.3100e-10      0.9999   
  7.3200e-10      0.9999   
  7.3300e-10      0.9999   
  7.3400e-10      1.0000   
  7.3500e-10      1.0000   
  7.3600e-10      1.0000   
  7.3700e-10      1.0000   
  7.3800e-10      1.0000   
  7.3900e-10      1.0000   
  7.4000e-10      1.0000   
  7.4100e-10      1.0000   
  7.4200e-10      1.0000   
  7.4300e-10      0.9999   
  7.4400e-10      1.0000   
  7.4500e-10      1.0003   
  7.4600e-10      1.0004   
  7.4700e-10      0.9996   
  7.4800e-10      0.9982   
  7.4900e-10      0.9966   
  7.5000e-10      0.9934   
  7.5100e-10      1.0068   
  7.5200e-10      1.0277   
  7.5300e-10      1.0232   
  7.5400e-10      0.9803   
  7.5500e-10      0.8443   
  7.5600e-10      0.5550   
  7.5700e-10      0.3039   
  7.5800e-10    9.376e-02  
  7.5900e-10    4.928e-02  
  7.6000e-10    4.053e-02  
  7.6100e-10    3.149e-02  
  7.6200e-10    1.868e-02  
  7.6300e-10    1.193e-02  
  7.6400e-10    6.998e-03  
  7.6500e-10    6.933e-03  
  7.6600e-10    6.895e-03  
  7.6700e-10    5.559e-03  
  7.6800e-10    3.932e-03  
  7.6900e-10    2.837e-03  
  7.7000e-10    2.132e-03  
  7.7100e-10    1.640e-03  
  7.7200e-10    1.226e-03  
  7.7300e-10    8.737e-04  
  7.7400e-10    6.063e-04  
  7.7500e-10    4.504e-04  
  7.7600e-10    3.361e-04  
  7.7700e-10    2.470e-04  
  7.7800e-10    1.813e-04  
  7.7900e-10    1.312e-04  
  7.8000e-10    9.755e-05  
  7.8100e-10    7.391e-05  
  7.8200e-10    5.493e-05  
  7.8300e-10    4.069e-05  
  7.8400e-10    3.033e-05  
  7.8500e-10    2.211e-05  
  7.8600e-10    1.658e-05  
  7.8700e-10    1.232e-05  
  7.8800e-10    9.331e-06  
  7.8900e-10    6.996e-06  
  7.9000e-10    6.022e-06  
  7.9100e-10      0.       
  7.9200e-10   -8.828e-07  
  7.9300e-10      0.       
  7.9400e-10   -1.472e-06  
  7.9500e-10    3.044e-05  
  7.9600e-10    4.855e-05  
  7.9700e-10    1.142e-05  
  7.9800e-10   -2.019e-04  
  7.9900e-10   -3.409e-04  
  8.0000e-10   -5.533e-04  
  8.0100e-10   -2.430e-04  
  8.0200e-10    3.393e-03  
  8.0300e-10    3.736e-03  
  8.0400e-10   -1.692e-03  
  8.0500e-10   -1.570e-02  
  8.0600e-10   -3.930e-02  
  8.0700e-10   -7.449e-02  
  8.0800e-10    3.010e-02  
  8.0900e-10      0.2447   
  8.1000e-10      0.5090   
  8.1100e-10      0.7150   
  8.1200e-10      0.8008   
  8.1300e-10      0.8474   
  8.1400e-10      0.8778   
  8.1500e-10      0.8983   
  8.1600e-10      0.9235   
  8.1700e-10      0.9439   
  8.1800e-10      0.9599   
  8.1900e-10      0.9700   
  8.2000e-10      0.9773   
  8.2100e-10      0.9839   
  8.2200e-10      0.9884   
  8.2300e-10      0.9918   
  8.2400e-10      0.9939   
  8.2500e-10      0.9955   
  8.2600e-10      0.9966   
  8.2700e-10      0.9975   
  8.2800e-10      0.9982   
  8.2900e-10      0.9986   
  8.3000e-10      0.9990   
  8.3100e-10      0.9992   
  8.3200e-10      0.9994   
  8.3300e-10      0.9996   
  8.3400e-10      0.9997   
  8.3500e-10      0.9998   
  8.3600e-10      0.9998   
  8.3700e-10      0.9999   
  8.3800e-10      0.9999   
  8.3900e-10      0.9999   
  8.4000e-10      0.9999   
  8.4100e-10      1.0000   
  8.4200e-10      1.0000   
  8.4300e-10      1.0000   
  8.4400e-10      1.0000   
  8.4500e-10      1.0000   
  8.4600e-10      1.0000   
  8.4700e-10      1.0000   
  8.4800e-10      1.0000   
  8.4900e-10      1.0000   
  8.5000e-10      1.0000   
  8.5100e-10      1.0000   
  8.5200e-10      1.0000   
  8.5300e-10      1.0004   
  8.5400e-10      1.0003   
  8.5500e-10      0.9994   
  8.5600e-10      0.9979   
  8.5700e-10      0.9959   
  8.5800e-10      0.9968   
  8.5900e-10      1.0060   
  8.6000e-10      1.0289   
  8.6100e-10      1.0318   
  8.6200e-10      0.9640   
  8.6300e-10      0.8199   
  8.6400e-10      0.5954   
  8.6500e-10      0.3326   
  8.6600e-10      0.1137   
  8.6700e-10    5.915e-02  
  8.6800e-10    4.138e-02  
  8.6900e-10    3.049e-02  
  8.7000e-10    1.776e-02  
  8.7100e-10    1.150e-02  
  8.7200e-10    6.579e-03  
  8.7300e-10    6.928e-03  
  8.7400e-10    6.724e-03  
  8.7500e-10    5.488e-03  
  8.7600e-10    3.778e-03  
  8.7700e-10    2.732e-03  
  8.7800e-10    2.103e-03  
  8.7900e-10    1.615e-03  
  8.8000e-10    1.188e-03  
  8.8100e-10    8.405e-04  
  8.8200e-10    6.055e-04  
  8.8300e-10    4.396e-04  
  8.8400e-10    3.341e-04  
  8.8500e-10    2.428e-04  
  8.8600e-10    1.765e-04  
  8.8700e-10    1.285e-04  
  8.8800e-10    9.514e-05  
  8.8900e-10    7.187e-05  
  8.9000e-10    5.349e-05  
  8.9100e-10    3.962e-05  
  8.9200e-10    2.920e-05  
  8.9300e-10    2.191e-05  
  8.9400e-10    1.606e-05  
  8.9500e-10    1.205e-05  
  8.9600e-10    8.742e-06  
  8.9700e-10    7.463e-06  
  8.9800e-10    4.391e-06  
  8.9900e-10      0.       
  9.0000e-10   -1.124e-06  
  9.0100e-10    5.260e-07  
  9.0200e-10    7.868e-06  
  9.0300e-10    2.551e-05  
  9.0400e-10    2.949e-05  
  9.0500e-10    2.110e-05  
  9.0600e-10   -2.096e-04  
  9.0700e-10   -3.375e-04  
  9.0800e-10   -5.997e-04  
  9.0900e-10    2.343e-05  
  9.1000e-10    3.918e-03  
  9.1100e-10    4.991e-03  
  9.1200e-10   -2.393e-03  
  9.1300e-10   -1.795e-02  
  9.1400e-10   -3.935e-02  
  9.1500e-10    1.248e-02  
  9.1600e-10    8.756e-02  
  9.1700e-10      0.2550   
  9.1800e-10      0.5075   
  9.1900e-10      0.7071   
  9.2000e-10      0.8055   
  9.2100e-10      0.8497   
  9.2200e-10      0.8745   
  9.2300e-10      0.8978   
  9.2400e-10      0.9244   
  9.2500e-10      0.9458   
  9.2600e-10      0.9602   
  9.2700e-10      0.9702   
  9.2800e-10      0.9778   
  9.2900e-10      0.9841   
  9.3000e-10      0.9887   
  9.3100e-10      0.9917   
  9.3200e-10      0.9939   
  9.3300e-10      0.9955   
  9.3400e-10      0.9965   
  9.3500e-10      0.9976   
  9.3600e-10      0.9982   
  9.3700e-10      0.9987   
  9.3800e-10      0.9990   
  9.3900e-10      0.9993   
  9.4000e-10      0.9994   
  9.4100e-10      0.9996   
  9.4200e-10      0.9997   
  9.4300e-10      0.9998   
  9.4400e-10      0.9998   
  9.4500e-10      0.9999   
  9.4600e-10      0.9999   
  9.4700e-10      0.9999   
  9.4800e-10      0.9999   
  9.4900e-10      1.0000   
  9.5000e-10      1.0000   
  9.5100e-10      1.0000   
  9.5200e-10      1.0000   
  9.5300e-10      1.0000   
  9.5400e-10      1.0000   
  9.5500e-10      1.0000   
  9.5600e-10      1.0000   
  9.5700e-10      1.0000   
  9.5800e-10      1.0000   
  9.5900e-10      0.9999   
  9.6000e-10      1.0002   
  9.6100e-10      1.0004   
  9.6200e-10      1.0002   
  9.6300e-10      0.9990   
  9.6400e-10      0.9975   
  9.6500e-10      0.9956   
  9.6600e-10      0.9954   
  9.6700e-10      1.0148   
  9.6800e-10      1.0334   
  9.6900e-10      1.0034   
  9.7000e-10      0.9343   
  9.7100e-10      0.7634   
  9.7200e-10      0.4559   
  9.7300e-10      0.1887   
  9.7400e-10    6.931e-02  
  9.7500e-10    4.660e-02  
  9.7600e-10    3.740e-02  
  9.7700e-10    2.557e-02  
  9.7800e-10    1.515e-02  
  9.7900e-10    9.621e-03  
  9.8000e-10    7.187e-03  
  9.8100e-10    7.260e-03  
  9.8200e-10    6.478e-03  
  9.8300e-10    4.794e-03  
  9.8400e-10    3.481e-03  
  9.8500e-10    2.542e-03  
  9.8600e-10    1.945e-03  
  9.8700e-10    1.491e-03  
  9.8800e-10    1.085e-03  
  9.8900e-10    7.520e-04  
  9.9000e-10    5.445e-04  
  9.9100e-10    3.951e-04  
  9.9200e-10    2.995e-04  
  9.9300e-10    2.189e-04  
  9.9400e-10    1.622e-04  
  9.9500e-10    1.173e-04  
  9.9600e-10    8.964e-05  
  9.9700e-10    6.611e-05  
  9.9800e-10    4.958e-05  
  9.9900e-10    3.634e-05  
  1.0000e-09    2.585e-05  
y
-----------------------------------------------
 t1= 1.6783e-12
 t2= 3.2489e-10
 period= 1.0774e-10
 delay_per_stage= 3.1688e-12

          ***** job concluded
1****** HSPICE -- G-2012.06 32-BIT (May 27 2012) RHEL32 ******                  
 ******  
 *sample netlist for bsim-mg

  ******  job statistics summary tnom=  25.000 temp=  25.000 *****
  
  
 ******  Machine Information  ******
 CPU:
 model name	: Intel(R) Xeon(R) CPU E5-2643 0 @ 3.30GHz
 cpu MHz	: 3299.813
  
 OS:
 Linux version 2.6.32-573.7.1.el6.x86_64 (mockbuild@x86-031.build.eng.bos.redhat.com) (gcc version 4.4.7 20120313 (Red Hat 4.4.7-16) (GCC) ) #1 SMP Thu Sep 10 13:42:16 EDT 2015


  ******  HSPICE Threads Information  ******

  Command Line Threads Count :     1
  Available CPU Count        :     8
  Actual Threads Count       :     1


  ******  Circuit Statistics  ******
  # nodes       =     189 # elements   =      35
  # resistors   =       0 # capacitors =       0 # inductors   =       0
  # mutual_inds =       0 # vccs       =       0 # vcvs        =       0
  # cccs        =       0 # ccvs       =       0 # volt_srcs   =       1
  # curr_srcs   =       0 # diodes     =       0 # bjts        =       0
  # jfets       =       0 # mosfets    =       0 # U elements  =       0
  # T elements  =       0 # W elements =       0 # B elements  =       0
  # S elements  =       0 # P elements =       0 # va device   =      34
  # vector_srcs =       0 # N elements =       0


  ******  Runtime Statistics (seconds)  ******

  analysis           time    # points   tot. iter  conv.iter
  op point           0.46           1         231
  transient          5.98        1001        3070         934 rev=         0
  readin             3.07
  errchk             0.08
  setup              0.01
  output             0.00


           peak memory used        121.68 megabytes
           total cpu time            9.61 seconds
           total elapsed time       15.14 seconds
           job started at     08:28:42 12/31/2015
           job ended   at     08:28:57 12/31/2015


 lic: Release hspice token(s) 
 lic: total license checkout elapse time:        0.21(s)
