 ****** HSPICE -- G-2012.06 32-BIT (May 27 2012) RHEL32 ******                  
  Copyright (C) 2012 Synopsys, Inc. All Rights Reserved.                        
  Unpublished-rights reserved under US copyright laws.
  This program is protected by law and is subject to the
  terms and conditions of the license agreement from Synopsys.
  Use of this program is your acceptance to be bound by the
  license agreement. HSPICE is the trademark of Synopsys, Inc.
  Input File: gummel_n.sp                                                       
  Command line options: -hdlpath ../code -i gummel_n.sp -o gummel_n
 lic:  
 lic: FLEXlm: v10.8 
 lic: USER:   navidp               HOSTNAME: intelr900-1.EECS.Berkeley.EDU 
 lic: HOSTID: 0022197fa591         PID:      25092 
 lic: Using FLEXlm license file: 
 lic: 1701@sunv40z-1.eecs.berkeley.edu 
 lic: Checkout 1 hspice 
 lic: License/Maintenance for hspice will expire on 19-dec-2013/2013.03 
 lic: 3(in_use)/50(total) FLOATING license(s) on SERVER sunv40z-1.eecs.berkeley.
 lic:   
 Init: read install configuration file: /tools/synopsys/hspice/G-2012.06/hspice/meta.cfg
 **info** *pvaI* Module (bsimcmg): 4 unexpanded port, 0 init, 2075 behav, 47 contrib, 63/3242 expr(s)

 **info** *pvaI* Resizing DB size for v count = 1

 **info** *pvaI* Resizing DB size for v count = 2

 **info** *pvaI*        Has DIS (ST SB), 4 afCount

 **info** *pvaI*        0 const-G and 0 const-C, Has switch branch.

 **info** *pvaI* Module (bsimcmg): generated 0 flow node(s) during compilation.

 **info** *pvaI* #### Total 697 line-size(s), 63 expr(s), 47 contr(s), 0 init(s), 2075 behav(s), 4 port(s)

 Loading pVA library gummel_n.pvadir/pvaRTL_linux.so...
1****** HSPICE -- G-2012.06 32-BIT (May 27 2012) RHEL32 ******                  
 ******  
 *sample netlist for bsim-mg

  ******  circuit name directory
 circuit number to circuit name directory
   number circuitname                     definition         multiplier
        0 main circuit
        1 x1.                             bsimcmg(va)        1.00 
 **info** *pvaI* Creating Verilog-A module 'bsimcmg' for X1

  
      
 *****************************************************************
 ******  option summary
 ******
 runlvl  = 3         bypass  = 2         
  Opening plot unit= 15
 file=gummel_n.pa0                                                             

 ******  
 *sample netlist for bsim-mg

  ******  dc transfer curves tnom=  25.000 temp=  25.000 *****

   *** source        0:vgate =    0.            ***

x

        volt    param        param        param        param      
                    ids          gx           gx2          gx3    
   -0.10000    -5.443e-08      0.           0.           0.       
 -9.9000e-02   -5.248e-08   -5.443e-05      0.           0.       
 -9.8000e-02   -5.059e-08    1.953e-06   -5.443e-02      0.       
 -9.7000e-02   -4.878e-08    1.885e-06    5.639e-02    -54.4321   
 -9.6000e-02   -4.702e-08    1.819e-06   -6.851e-05    110.8175   
 -9.5000e-02   -4.533e-08    1.755e-06   -6.614e-05    -56.4539   
 -9.4000e-02   -4.369e-08    1.693e-06   -6.391e-05    2.373e-03  
 -9.3000e-02   -4.212e-08    1.634e-06   -6.166e-05    2.231e-03  
 -9.2000e-02   -4.060e-08    1.576e-06   -5.961e-05    2.245e-03  
 -9.1000e-02   -3.913e-08    1.520e-06   -5.750e-05    2.046e-03  
 -9.0000e-02   -3.772e-08    1.467e-06   -5.555e-05    2.117e-03  
 -8.9000e-02   -3.635e-08    1.415e-06   -5.365e-05    1.947e-03  
 -8.8000e-02   -3.503e-08    1.365e-06   -5.177e-05    1.904e-03  
 -8.7000e-02   -3.376e-08    1.317e-06   -4.998e-05    1.876e-03  
 -8.6000e-02   -3.254e-08    1.270e-06   -4.829e-05    1.791e-03  
 -8.5000e-02   -3.136e-08    1.225e-06   -4.658e-05    1.691e-03  
 -8.4000e-02   -3.022e-08    1.182e-06   -4.493e-05    1.705e-03  
 -8.3000e-02   -2.912e-08    1.140e-06   -4.344e-05    1.648e-03  
 -8.2000e-02   -2.806e-08    1.099e-06   -4.192e-05    1.492e-03  
 -8.1000e-02   -2.703e-08    1.060e-06   -4.042e-05    1.521e-03  
 -8.0000e-02   -2.605e-08    1.023e-06   -3.902e-05    1.506e-03  
 -7.9000e-02   -2.510e-08    9.864e-07   -3.770e-05    1.393e-03  
 -7.8000e-02   -2.418e-08    9.513e-07   -3.632e-05    1.322e-03  
 -7.7000e-02   -2.329e-08    9.175e-07   -3.510e-05    1.378e-03  
 -7.6000e-02   -2.244e-08    8.848e-07   -3.384e-05    1.222e-03  
 -7.5000e-02   -2.162e-08    8.533e-07   -3.270e-05    1.265e-03  
 -7.4000e-02   -2.082e-08    8.229e-07   -3.149e-05    1.137e-03  
 -7.3000e-02   -2.006e-08    7.936e-07   -3.041e-05    1.208e-03  
 -7.2000e-02   -1.932e-08    7.653e-07   -2.932e-05    1.080e-03  
 -7.1000e-02   -1.861e-08    7.380e-07   -2.831e-05    1.094e-03  
 -7.0000e-02   -1.792e-08    7.116e-07   -2.731e-05    1.009e-03  
 -6.9000e-02   -1.726e-08    6.862e-07   -2.635e-05    9.948e-04  
 -6.8000e-02   -1.662e-08    6.618e-07   -2.538e-05    9.663e-04  
 -6.7000e-02   -1.601e-08    6.381e-07   -2.447e-05    9.663e-04  
 -6.6000e-02   -1.541e-08    6.153e-07   -2.369e-05    9.095e-04  
 -6.5000e-02   -1.484e-08    5.933e-07   -2.272e-05    7.816e-04  
 -6.4000e-02   -1.429e-08    5.721e-07   -2.203e-05    9.663e-04  
 -6.3000e-02   -1.376e-08    5.517e-07   -2.117e-05    6.963e-04  
 -6.2000e-02   -1.325e-08    5.320e-07   -2.043e-05    8.527e-04  
 -6.1000e-02   -1.275e-08    5.130e-07   -1.968e-05    7.461e-04  
 -6.0000e-02   -1.227e-08    4.947e-07   -1.899e-05    7.461e-04  
 -5.9000e-02   -1.181e-08    4.771e-07   -1.830e-05    6.892e-04  
 -5.8000e-02   -1.137e-08    4.601e-07   -1.764e-05    6.963e-04  
 -5.7000e-02   -1.094e-08    4.437e-07   -1.700e-05    6.537e-04  
 -5.6000e-02   -1.053e-08    4.279e-07   -1.638e-05    6.466e-04  
 -5.5000e-02   -1.013e-08    4.127e-07   -1.579e-05    6.182e-04  
 -5.4000e-02   -9.747e-09    3.981e-07   -1.523e-05    5.898e-04  
 -5.3000e-02   -9.377e-09    3.840e-07   -1.462e-05    5.613e-04  
 -5.2000e-02   -9.019e-09    3.704e-07   -1.413e-05    6.040e-04  
 -5.1000e-02   -8.675e-09    3.573e-07   -1.359e-05    4.903e-04  
 -5.0000e-02   -8.342e-09    3.447e-07   -1.307e-05    5.471e-04  
 -4.9000e-02   -8.021e-09    3.326e-07   -1.260e-05    5.116e-04  
 -4.8000e-02   -7.712e-09    3.209e-07   -1.214e-05    4.761e-04  
 -4.7000e-02   -7.413e-09    3.097e-07   -1.167e-05    4.547e-04  
 -4.6000e-02   -7.124e-09    2.988e-07   -1.122e-05    4.690e-04  
 -4.5000e-02   -6.846e-09    2.885e-07   -1.083e-05    4.547e-04  
 -4.4000e-02   -6.577e-09    2.784e-07   -1.038e-05    3.908e-04  
 -4.3000e-02   -6.317e-09    2.688e-07   -1.002e-05    4.476e-04  
 -4.2000e-02   -6.067e-09    2.596e-07   -9.614e-06    3.624e-04  
 -4.1000e-02   -5.825e-09    2.507e-07   -9.244e-06    4.050e-04  
 -4.0000e-02   -5.591e-09    2.421e-07   -8.903e-06    3.695e-04  
 -3.9000e-02   -5.365e-09    2.339e-07   -8.527e-06    3.411e-04  
 -3.8000e-02   -5.146e-09    2.260e-07   -8.214e-06    3.766e-04  
 -3.7000e-02   -4.935e-09    2.185e-07   -7.887e-06    3.126e-04  
 -3.6000e-02   -4.731e-09    2.112e-07   -7.560e-06    3.268e-04  
 -3.5000e-02   -4.533e-09    2.042e-07   -7.276e-06    3.268e-04  
 -3.4000e-02   -4.342e-09    1.976e-07   -6.970e-06    2.842e-04  
 -3.3000e-02   -4.157e-09    1.912e-07   -6.672e-06    3.055e-04  
 -3.2000e-02   -3.978e-09    1.850e-07   -6.409e-06    2.984e-04  
 -3.1000e-02   -3.804e-09    1.792e-07   -6.118e-06    2.629e-04  
 -3.0000e-02   -3.636e-09    1.736e-07   -5.855e-06    2.913e-04  
 -2.9000e-02   -3.473e-09    1.683e-07   -5.599e-06    2.629e-04  
 -2.8000e-02   -3.314e-09    1.632e-07   -5.311e-06    2.558e-04  
 -2.7000e-02   -3.161e-09    1.584e-07   -5.091e-06    2.878e-04  
 -2.6000e-02   -3.011e-09    1.538e-07   -4.803e-06    2.203e-04  
 -2.5000e-02   -2.866e-09    1.495e-07   -4.565e-06    2.878e-04  
 -2.4000e-02   -2.724e-09    1.454e-07   -4.320e-06    2.380e-04  
 -2.3000e-02   -2.586e-09    1.416e-07   -4.068e-06    2.451e-04  
 -2.2000e-02   -2.451e-09    1.380e-07   -3.833e-06    2.522e-04  
 -2.1000e-02   -2.320e-09    1.346e-07   -3.592e-06    2.345e-04  
 -2.0000e-02   -2.191e-09    1.315e-07   -3.375e-06    2.416e-04  
 -1.9000e-02   -2.066e-09    1.285e-07   -3.158e-06    2.167e-04  
 -1.8000e-02   -1.942e-09    1.258e-07   -2.952e-06    2.167e-04  
 -1.7000e-02   -1.822e-09    1.232e-07   -2.750e-06    2.061e-04  
 -1.6000e-02   -1.703e-09    1.208e-07   -2.569e-06    2.025e-04  
 -1.5000e-02   -1.587e-09    1.186e-07   -2.395e-06    1.812e-04  
 -1.4000e-02   -1.472e-09    1.165e-07   -2.233e-06    1.741e-04  
 -1.3000e-02   -1.359e-09    1.146e-07   -2.085e-06    1.616e-04  
 -1.2000e-02   -1.248e-09    1.128e-07   -1.929e-06    1.474e-04  
 -1.1000e-02   -1.139e-09    1.111e-07   -1.798e-06    1.563e-04  
 -1.0000e-02   -1.031e-09    1.095e-07   -1.670e-06    1.315e-04  
 -9.0000e-03   -9.237e-10    1.081e-07   -1.538e-06    1.279e-04  
 -8.0000e-03   -8.180e-10    1.068e-07   -1.416e-06    1.315e-04  
 -7.0000e-03   -7.134e-10    1.057e-07   -1.295e-06    1.226e-04  
 -6.0000e-03   -6.098e-10    1.046e-07   -1.177e-06    1.208e-04  
 -5.0000e-03   -5.069e-10    1.037e-07   -1.052e-06    1.181e-04  
 -4.0000e-03   -4.047e-10    1.029e-07   -9.273e-07    1.243e-04  
 -3.0000e-03   -3.030e-10    1.022e-07   -8.082e-07    1.252e-04  
 -2.0000e-03   -2.018e-10    1.017e-07   -6.741e-07    1.190e-04  
 -1.0000e-03   -1.008e-10    1.012e-07   -5.471e-07    1.341e-04  
    0.         -1.534e-20    1.010e-07   -4.134e-07    1.270e-04  
  1.0000e-03    1.008e-10    1.008e-07   -2.766e-07    1.337e-04  
  2.0000e-03    2.018e-10    1.008e-07   -1.392e-07    1.369e-04  
  3.0000e-03    3.030e-10    1.010e-07    3.069e-14    1.373e-04  
  4.0000e-03    4.047e-10    1.012e-07    1.392e-07    1.392e-04  
  5.0000e-03    5.069e-10    1.017e-07    2.770e-07    1.392e-04  
  6.0000e-03    6.098e-10    1.022e-07    4.126e-07    1.378e-04  
  7.0000e-03    7.134e-10    1.029e-07    5.467e-07    1.356e-04  
  8.0000e-03    8.180e-10    1.037e-07    6.777e-07    1.341e-04  
  9.0000e-03    9.237e-10    1.046e-07    8.029e-07    1.310e-04  
  1.0000e-02    1.031e-09    1.057e-07    9.308e-07    1.252e-04  
  1.1000e-02    1.139e-09    1.068e-07    1.053e-06    1.279e-04  
  1.2000e-02    1.248e-09    1.081e-07    1.173e-06    1.226e-04  
  1.3000e-02    1.359e-09    1.095e-07    1.297e-06    1.199e-04  
  1.4000e-02    1.472e-09    1.111e-07    1.416e-06    1.235e-04  
  1.5000e-02    1.587e-09    1.128e-07    1.542e-06    1.190e-04  
  1.6000e-02    1.703e-09    1.146e-07    1.666e-06    1.261e-04  
  1.7000e-02    1.822e-09    1.165e-07    1.796e-06    1.243e-04  
  1.8000e-02    1.942e-09    1.186e-07    1.933e-06    1.297e-04  
  1.9000e-02    2.066e-09    1.208e-07    2.080e-06    1.368e-04  
  2.0000e-02    2.191e-09    1.232e-07    2.233e-06    1.474e-04  
  2.1000e-02    2.320e-09    1.258e-07    2.398e-06    1.528e-04  
  2.2000e-02    2.451e-09    1.285e-07    2.572e-06    1.652e-04  
  2.3000e-02    2.586e-09    1.315e-07    2.743e-06    1.741e-04  
  2.4000e-02    2.724e-09    1.346e-07    2.963e-06    1.705e-04  
  2.5000e-02    2.866e-09    1.380e-07    3.144e-06    2.203e-04  
  2.6000e-02    3.011e-09    1.416e-07    3.382e-06    1.812e-04  
  2.7000e-02    3.161e-09    1.454e-07    3.595e-06    2.380e-04  
  2.8000e-02    3.314e-09    1.495e-07    3.830e-06    2.132e-04  
  2.9000e-02    3.473e-09    1.538e-07    4.068e-06    2.345e-04  
  3.0000e-02    3.636e-09    1.584e-07    4.324e-06    2.380e-04  
  3.1000e-02    3.804e-09    1.632e-07    4.555e-06    2.558e-04  
  3.2000e-02    3.978e-09    1.683e-07    4.817e-06    2.309e-04  
  3.3000e-02    4.157e-09    1.736e-07    5.073e-06    2.629e-04  
  3.4000e-02    4.342e-09    1.792e-07    5.329e-06    2.558e-04  
  3.5000e-02    4.533e-09    1.851e-07    5.578e-06    2.558e-04  
  3.6000e-02    4.731e-09    1.912e-07    5.883e-06    2.487e-04  
  3.7000e-02    4.935e-09    1.976e-07    6.118e-06    3.055e-04  
  3.8000e-02    5.146e-09    2.042e-07    6.381e-06    2.345e-04  
  3.9000e-02    5.365e-09    2.112e-07    6.686e-06    2.629e-04  
  4.0000e-02    5.591e-09    2.185e-07    6.978e-06    3.055e-04  
  4.1000e-02    5.825e-09    2.260e-07    7.262e-06    2.913e-04  
  4.2000e-02    6.067e-09    2.339e-07    7.560e-06    2.842e-04  
  4.3000e-02    6.317e-09    2.421e-07    7.901e-06    2.984e-04  
  4.4000e-02    6.577e-09    2.507e-07    8.207e-06    3.411e-04  
  4.5000e-02    6.846e-09    2.596e-07    8.527e-06    3.055e-04  
  4.6000e-02    7.124e-09    2.688e-07    8.903e-06    3.197e-04  
  4.7000e-02    7.413e-09    2.784e-07    9.251e-06    3.766e-04  
  4.8000e-02    7.712e-09    2.884e-07    9.607e-06    3.482e-04  
  4.9000e-02    8.021e-09    2.988e-07    1.001e-05    3.553e-04  
  5.0000e-02    8.342e-09    3.097e-07    1.039e-05    4.050e-04  
  5.1000e-02    8.675e-09    3.209e-07    1.082e-05    3.766e-04  
  5.2000e-02    9.019e-09    3.326e-07    1.124e-05    4.334e-04  
  5.3000e-02    9.377e-09    3.447e-07    1.166e-05    4.192e-04  
  5.4000e-02    9.747e-09    3.573e-07    1.213e-05    4.192e-04  
  5.5000e-02    1.013e-08    3.704e-07    1.261e-05    4.690e-04  
  5.6000e-02    1.053e-08    3.840e-07    1.309e-05    4.761e-04  
  5.7000e-02    1.094e-08    3.981e-07    1.359e-05    4.832e-04  
  5.8000e-02    1.137e-08    4.127e-07    1.412e-05    5.045e-04  
  5.9000e-02    1.181e-08    4.279e-07    1.463e-05    5.258e-04  
  6.0000e-02    1.227e-08    4.437e-07    1.521e-05    5.116e-04  
  6.1000e-02    1.275e-08    4.601e-07    1.579e-05    5.826e-04  
  6.2000e-02    1.325e-08    4.771e-07    1.639e-05    5.755e-04  
  6.3000e-02    1.376e-08    4.947e-07    1.700e-05    5.969e-04  
  6.4000e-02    1.429e-08    5.130e-07    1.764e-05    6.111e-04  
  6.5000e-02    1.484e-08    5.320e-07    1.831e-05    6.395e-04  
  6.6000e-02    1.541e-08    5.517e-07    1.899e-05    6.750e-04  
  6.7000e-02    1.601e-08    5.721e-07    1.970e-05    6.750e-04  
  6.8000e-02    1.662e-08    5.933e-07    2.040e-05    7.105e-04  
  6.9000e-02    1.726e-08    6.153e-07    2.122e-05    7.034e-04  
  7.0000e-02    1.792e-08    6.381e-07    2.197e-05    8.171e-04  
  7.1000e-02    1.861e-08    6.617e-07    2.278e-05    7.532e-04  
  7.2000e-02    1.932e-08    6.862e-07    2.363e-05    8.100e-04  
  7.3000e-02    2.006e-08    7.116e-07    2.449e-05    8.527e-04  
  7.4000e-02    2.082e-08    7.379e-07    2.542e-05    8.527e-04  
  7.5000e-02    2.162e-08    7.653e-07    2.630e-05    9.379e-04  
  7.6000e-02    2.244e-08    7.936e-07    2.734e-05    8.811e-04  
  7.7000e-02    2.329e-08    8.229e-07    2.828e-05    1.037e-03  
  7.8000e-02    2.418e-08    8.533e-07    2.933e-05    9.379e-04  
  7.9000e-02    2.510e-08    8.848e-07    3.040e-05    1.052e-03  
  8.0000e-02    2.605e-08    9.175e-07    3.152e-05    1.066e-03  
  8.1000e-02    2.703e-08    9.513e-07    3.268e-05    1.123e-03  
  8.2000e-02    2.806e-08    9.864e-07    3.385e-05    1.165e-03  
  8.3000e-02    2.912e-08    1.023e-06    3.506e-05    1.165e-03  
  8.4000e-02    3.022e-08    1.060e-06    3.638e-05    1.208e-03  
  8.5000e-02    3.136e-08    1.099e-06    3.764e-05    1.322e-03  
  8.6000e-02    3.254e-08    1.140e-06    3.907e-05    1.265e-03  
  8.7000e-02    3.376e-08    1.182e-06    4.042e-05    1.421e-03  
  8.8000e-02    3.503e-08    1.225e-06    4.191e-05    1.350e-03  
  8.9000e-02    3.635e-08    1.270e-06    4.343e-05    1.492e-03  
  9.0000e-02    3.772e-08    1.317e-06    4.496e-05    1.521e-03  
  9.1000e-02    3.913e-08    1.365e-06    4.657e-05    1.535e-03  
  9.2000e-02    4.060e-08    1.415e-06    4.827e-05    1.606e-03  
  9.3000e-02    4.212e-08    1.467e-06    5.001e-05    1.705e-03  
  9.4000e-02    4.369e-08    1.520e-06    5.174e-05    1.734e-03  
  9.5000e-02    4.533e-08    1.576e-06    5.365e-05    1.734e-03  
  9.6000e-02    4.702e-08    1.634e-06    5.558e-05    1.904e-03  
  9.7000e-02    4.878e-08    1.693e-06    5.751e-05    1.933e-03  
  9.8000e-02    5.059e-08    1.755e-06    5.956e-05    1.933e-03  
  9.9000e-02    5.248e-08    1.819e-06    6.170e-05    2.046e-03  
    0.10000     5.443e-08    1.885e-06    6.388e-05    2.146e-03  
y
x

        volt    param      
                    gx4    
   -0.10000       0.       
 -9.9000e-02      0.       
 -9.8000e-02      0.       
 -9.7000e-02      0.       
 -9.6000e-02   -5.443e+04  
 -9.5000e-02    1.652e+05  
 -9.4000e-02   -1.672e+05  
 -9.3000e-02    5.645e+04  
 -9.2000e-02     -0.1421   
 -9.1000e-02    1.421e-02  
 -9.0000e-02     -0.1990   
 -8.9000e-02    7.105e-02  
 -8.8000e-02     -0.1705   
 -8.7000e-02   -4.263e-02  
 -8.6000e-02   -2.842e-02  
 -8.5000e-02   -8.527e-02  
 -8.4000e-02   -9.948e-02  
 -8.3000e-02    1.421e-02  
 -8.2000e-02   -5.684e-02  
 -8.1000e-02     -0.1563   
 -8.0000e-02    2.842e-02  
 -7.9000e-02   -1.421e-02  
 -7.8000e-02     -0.1137   
 -7.7000e-02   -7.105e-02  
 -7.6000e-02    5.684e-02  
 -7.5000e-02     -0.1563   
 -7.4000e-02    4.263e-02  
 -7.3000e-02     -0.1279   
 -7.2000e-02    7.105e-02  
 -7.1000e-02     -0.1279   
 -7.0000e-02    1.421e-02  
 -6.9000e-02   -8.527e-02  
 -6.8000e-02   -1.421e-02  
 -6.7000e-02   -2.842e-02  
 -6.6000e-02      0.       
 -6.5000e-02   -5.684e-02  
 -6.4000e-02     -0.1279   
 -6.3000e-02      0.1847   
 -6.2000e-02     -0.2700   
 -6.1000e-02      0.1563   
 -6.0000e-02     -0.1066   
 -5.9000e-02    3.988e-12  
 -5.8000e-02   -5.684e-02  
 -5.7000e-02    7.105e-03  
 -5.6000e-02   -4.263e-02  
 -5.5000e-02   -7.105e-03  
 -5.4000e-02   -2.842e-02  
 -5.3000e-02   -2.842e-02  
 -5.2000e-02   -2.842e-02  
 -5.1000e-02    4.263e-02  
 -5.0000e-02     -0.1137   
 -4.9000e-02    5.684e-02  
 -4.8000e-02   -3.553e-02  
 -4.7000e-02   -3.553e-02  
 -4.6000e-02   -2.132e-02  
 -4.5000e-02    1.421e-02  
 -4.4000e-02   -1.421e-02  
 -4.3000e-02   -6.395e-02  
 -4.2000e-02    5.684e-02  
 -4.1000e-02   -8.527e-02  
 -4.0000e-02    4.263e-02  
 -3.9000e-02   -3.553e-02  
 -3.8000e-02   -2.842e-02  
 -3.7000e-02    3.553e-02  
 -3.6000e-02   -6.395e-02  
 -3.5000e-02    1.421e-02  
 -3.4000e-02   -1.668e-12  
 -3.3000e-02   -4.263e-02  
 -3.2000e-02    2.132e-02  
 -3.1000e-02   -7.105e-03  
 -3.0000e-02   -3.553e-02  
 -2.9000e-02    2.842e-02  
 -2.8000e-02   -2.842e-02  
 -2.7000e-02   -7.105e-03  
 -2.6000e-02    3.197e-02  
 -2.5000e-02   -6.750e-02  
 -2.4000e-02    6.750e-02  
 -2.3000e-02   -4.974e-02  
 -2.2000e-02    7.105e-03  
 -2.1000e-02    7.105e-03  
 -2.0000e-02   -1.776e-02  
 -1.9000e-02    7.105e-03  
 -1.8000e-02   -2.487e-02  
 -1.7000e-02    2.670e-14  
 -1.6000e-02   -1.066e-02  
 -1.5000e-02   -3.553e-03  
 -1.4000e-02   -2.132e-02  
 -1.3000e-02   -7.105e-03  
 -1.2000e-02   -1.243e-02  
 -1.1000e-02   -1.421e-02  
 -1.0000e-02    8.882e-03  
 -9.0000e-03   -2.487e-02  
 -8.0000e-03   -3.553e-03  
 -7.0000e-03    3.553e-03  
 -6.0000e-03   -8.882e-03  
 -5.0000e-03   -1.776e-03  
 -4.0000e-03   -2.665e-03  
 -3.0000e-03    6.217e-03  
 -2.0000e-03    8.882e-04  
 -1.0000e-03   -6.217e-03  
    0.          1.510e-02  
  1.0000e-03   -7.105e-03  
  2.0000e-03    6.661e-03  
  3.0000e-03    3.220e-03  
  4.0000e-03    4.441e-04  
  5.0000e-03    1.887e-03  
  6.0000e-03   -9.206e-08  
  7.0000e-03   -1.443e-03  
  8.0000e-03   -2.220e-03  
  9.0000e-03   -1.443e-03  
  1.0000e-02   -3.109e-03  
  1.1000e-02   -5.773e-03  
  1.2000e-02    2.665e-03  
  1.3000e-02   -5.329e-03  
  1.4000e-02   -2.665e-03  
  1.5000e-02    3.553e-03  
  1.6000e-02   -4.441e-03  
  1.7000e-02    7.105e-03  
  1.8000e-02   -1.776e-03  
  1.9000e-02    5.329e-03  
  2.0000e-02    7.105e-03  
  2.1000e-02    1.066e-02  
  2.2000e-02    5.329e-03  
  2.3000e-02    1.243e-02  
  2.4000e-02    8.882e-03  
  2.5000e-02   -3.553e-03  
  2.6000e-02    4.974e-02  
  2.7000e-02   -3.908e-02  
  2.8000e-02    5.684e-02  
  2.9000e-02   -2.487e-02  
  3.0000e-02    2.132e-02  
  3.1000e-02    3.553e-03  
  3.2000e-02    1.776e-02  
  3.3000e-02   -2.487e-02  
  3.4000e-02    3.197e-02  
  3.5000e-02   -7.105e-03  
  3.6000e-02    5.334e-14  
  3.7000e-02   -7.105e-03  
  3.8000e-02    5.684e-02  
  3.9000e-02   -7.105e-02  
  4.0000e-02    2.842e-02  
  4.1000e-02    4.263e-02  
  4.2000e-02   -1.421e-02  
  4.3000e-02   -7.105e-03  
  4.4000e-02    1.421e-02  
  4.5000e-02    4.263e-02  
  4.6000e-02   -3.553e-02  
  4.7000e-02    1.421e-02  
  4.8000e-02    5.684e-02  
  4.9000e-02   -2.842e-02  
  5.0000e-02    7.105e-03  
  5.1000e-02    4.974e-02  
  5.2000e-02   -2.842e-02  
  5.3000e-02    5.684e-02  
  5.4000e-02   -1.421e-02  
  5.5000e-02   -5.253e-14  
  5.6000e-02    4.974e-02  
  5.7000e-02    7.105e-03  
  5.8000e-02    7.105e-03  
  5.9000e-02    2.132e-02  
  6.0000e-02    2.132e-02  
  6.1000e-02   -1.421e-02  
  6.2000e-02    7.105e-02  
  6.3000e-02   -7.105e-03  
  6.4000e-02    2.132e-02  
  6.5000e-02    1.421e-02  
  6.6000e-02    2.842e-02  
  6.7000e-02    3.553e-02  
  6.8000e-02      0.       
  6.9000e-02    3.553e-02  
  7.0000e-02   -7.105e-03  
  7.1000e-02      0.1137   
  7.2000e-02   -6.395e-02  
  7.3000e-02    5.684e-02  
  7.4000e-02    4.263e-02  
  7.5000e-02    2.101e-13  
  7.6000e-02    8.527e-02  
  7.7000e-02   -5.684e-02  
  7.8000e-02      0.1563   
  7.9000e-02   -9.948e-02  
  8.0000e-02      0.1137   
  8.1000e-02    1.421e-02  
  8.2000e-02    5.684e-02  
  8.3000e-02    4.263e-02  
  8.4000e-02    2.168e-13  
  8.5000e-02    4.263e-02  
  8.6000e-02      0.1137   
  8.7000e-02   -5.684e-02  
  8.8000e-02      0.1563   
  8.9000e-02   -7.105e-02  
  9.0000e-02      0.1421   
  9.1000e-02    2.842e-02  
  9.2000e-02    1.421e-02  
  9.3000e-02    7.105e-02  
  9.4000e-02    9.948e-02  
  9.5000e-02    2.842e-02  
  9.6000e-02    6.722e-15  
  9.7000e-02      0.1705   
  9.8000e-02    2.842e-02  
  9.9000e-02    4.270e-13  
    0.10000       0.1137   
y
-----------------------------------------------
 ******  
 *sample netlist for bsim-mg

  ******  dc transfer curves tnom=  25.000 temp=  25.000 *****

   *** source        0:vgate =    0.2000        ***

x

        volt    param        param        param        param      
                    ids          gx           gx2          gx3    
   -0.10000    -1.370e-05   -5.443e-07   -1.885e-05   -6.388e-04  
 -9.9000e-02   -1.344e-05   -1.376e-02   -2.429e-03   -8.273e-02  
 -9.8000e-02   -1.317e-05    2.670e-04    -13.7564      -2.4103   
 -9.7000e-02   -1.291e-05    2.637e-04     14.0239    -1.375e+04  
 -9.6000e-02   -1.265e-05    2.604e-04   -3.302e-03    2.778e+04  
 -9.5000e-02   -1.240e-05    2.571e-04   -3.295e-03   -1.402e+04  
 -9.4000e-02   -1.215e-05    2.538e-04   -3.287e-03    7.205e-03  
 -9.3000e-02   -1.190e-05    2.505e-04   -3.279e-03    7.560e-03  
 -9.2000e-02   -1.166e-05    2.473e-04   -3.271e-03    8.043e-03  
 -9.1000e-02   -1.142e-05    2.440e-04   -3.262e-03    8.512e-03  
 -9.0000e-02   -1.118e-05    2.408e-04   -3.253e-03    8.939e-03  
 -8.9000e-02   -1.095e-05    2.375e-04   -3.243e-03    9.365e-03  
 -8.8000e-02   -1.071e-05    2.343e-04   -3.232e-03    9.905e-03  
 -8.7000e-02   -1.049e-05    2.311e-04   -3.221e-03    1.033e-02  
 -8.6000e-02   -1.026e-05    2.279e-04   -3.210e-03    1.083e-02  
 -8.5000e-02   -1.004e-05    2.247e-04   -3.198e-03    1.131e-02  
 -8.4000e-02   -9.822e-06    2.216e-04   -3.186e-03    1.180e-02  
 -8.3000e-02   -9.607e-06    2.184e-04   -3.173e-03    1.235e-02  
 -8.2000e-02   -9.395e-06    2.153e-04   -3.160e-03    1.282e-02  
 -8.1000e-02   -9.186e-06    2.121e-04   -3.146e-03    1.332e-02  
 -8.0000e-02   -8.980e-06    2.090e-04   -3.132e-03    1.393e-02  
 -7.9000e-02   -8.777e-06    2.059e-04   -3.117e-03    1.434e-02  
 -7.8000e-02   -8.578e-06    2.028e-04   -3.101e-03    1.498e-02  
 -7.7000e-02   -8.381e-06    1.997e-04   -3.085e-03    1.545e-02  
 -7.6000e-02   -8.187e-06    1.967e-04   -3.068e-03    1.609e-02  
 -7.5000e-02   -7.997e-06    1.937e-04   -3.051e-03    1.661e-02  
 -7.4000e-02   -7.809e-06    1.906e-04   -3.034e-03    1.714e-02  
 -7.3000e-02   -7.624e-06    1.877e-04   -3.015e-03    1.774e-02  
 -7.2000e-02   -7.442e-06    1.847e-04   -2.996e-03    1.836e-02  
 -7.1000e-02   -7.264e-06    1.817e-04   -2.977e-03    1.889e-02  
 -7.0000e-02   -7.088e-06    1.788e-04   -2.957e-03    1.951e-02  
 -6.9000e-02   -6.915e-06    1.759e-04   -2.936e-03    2.018e-02  
 -6.8000e-02   -6.745e-06    1.730e-04   -2.915e-03    2.065e-02  
 -6.7000e-02   -6.577e-06    1.701e-04   -2.893e-03    2.137e-02  
 -6.6000e-02   -6.413e-06    1.673e-04   -2.870e-03    2.196e-02  
 -6.5000e-02   -6.251e-06    1.644e-04   -2.847e-03    2.255e-02  
 -6.4000e-02   -6.093e-06    1.616e-04   -2.823e-03    2.323e-02  
 -6.3000e-02   -5.936e-06    1.589e-04   -2.798e-03    2.385e-02  
 -6.2000e-02   -5.783e-06    1.561e-04   -2.773e-03    2.457e-02  
 -6.1000e-02   -5.632e-06    1.534e-04   -2.748e-03    2.498e-02  
 -6.0000e-02   -5.484e-06    1.507e-04   -2.721e-03    2.591e-02  
 -5.9000e-02   -5.339e-06    1.480e-04   -2.694e-03    2.637e-02  
 -5.8000e-02   -5.196e-06    1.454e-04   -2.666e-03    2.714e-02  
 -5.7000e-02   -5.056e-06    1.428e-04   -2.638e-03    2.768e-02  
 -5.6000e-02   -4.918e-06    1.402e-04   -2.609e-03    2.844e-02  
 -5.5000e-02   -4.783e-06    1.377e-04   -2.579e-03    2.903e-02  
 -5.4000e-02   -4.650e-06    1.351e-04   -2.549e-03    2.967e-02  
 -5.3000e-02   -4.520e-06    1.327e-04   -2.518e-03    3.036e-02  
 -5.2000e-02   -4.392e-06    1.302e-04   -2.486e-03    3.097e-02  
 -5.1000e-02   -4.267e-06    1.278e-04   -2.454e-03    3.159e-02  
 -5.0000e-02   -4.144e-06    1.254e-04   -2.421e-03    3.227e-02  
 -4.9000e-02   -4.023e-06    1.230e-04   -2.388e-03    3.288e-02  
 -4.8000e-02   -3.905e-06    1.207e-04   -2.354e-03    3.349e-02  
 -4.7000e-02   -3.789e-06    1.184e-04   -2.319e-03    3.415e-02  
 -4.6000e-02   -3.675e-06    1.162e-04   -2.283e-03    3.470e-02  
 -4.5000e-02   -3.563e-06    1.140e-04   -2.247e-03    3.542e-02  
 -4.4000e-02   -3.453e-06    1.118e-04   -2.211e-03    3.597e-02  
 -4.3000e-02   -3.346e-06    1.097e-04   -2.173e-03    3.665e-02  
 -4.2000e-02   -3.240e-06    1.076e-04   -2.135e-03    3.732e-02  
 -4.1000e-02   -3.137e-06    1.055e-04   -2.097e-03    3.804e-02  
 -4.0000e-02   -3.035e-06    1.035e-04   -2.057e-03    3.878e-02  
 -3.9000e-02   -2.936e-06    1.015e-04   -2.017e-03    3.962e-02  
 -3.8000e-02   -2.838e-06    9.959e-05   -1.975e-03    4.048e-02  
 -3.7000e-02   -2.742e-06    9.770e-05   -1.932e-03    4.150e-02  
 -3.6000e-02   -2.648e-06    9.586e-05   -1.889e-03    4.268e-02  
 -3.5000e-02   -2.556e-06    9.406e-05   -1.843e-03    4.387e-02  
 -3.4000e-02   -2.465e-06    9.232e-05   -1.796e-03    4.528e-02  
 -3.3000e-02   -2.376e-06    9.062e-05   -1.748e-03    4.692e-02  
 -3.2000e-02   -2.289e-06    8.897e-05   -1.697e-03    4.854e-02  
 -3.1000e-02   -2.203e-06    8.738e-05   -1.645e-03    5.043e-02  
 -3.0000e-02   -2.118e-06    8.585e-05   -1.591e-03    5.244e-02  
 -2.9000e-02   -2.035e-06    8.437e-05   -1.534e-03    5.440e-02  
 -2.8000e-02   -1.954e-06    8.296e-05   -1.476e-03    5.644e-02  
 -2.7000e-02   -1.874e-06    8.160e-05   -1.416e-03    5.834e-02  
 -2.6000e-02   -1.794e-06    8.031e-05   -1.354e-03    6.008e-02  
 -2.5000e-02   -1.717e-06    7.908e-05   -1.292e-03    6.153e-02  
 -2.4000e-02   -1.640e-06    7.792e-05   -1.228e-03    6.258e-02  
 -2.3000e-02   -1.564e-06    7.682e-05   -1.165e-03    6.313e-02  
 -2.2000e-02   -1.489e-06    7.577e-05   -1.103e-03    6.318e-02  
 -2.1000e-02   -1.415e-06    7.479e-05   -1.041e-03    6.262e-02  
 -2.0000e-02   -1.342e-06    7.387e-05   -9.815e-04    6.143e-02  
 -1.9000e-02   -1.270e-06    7.300e-05   -9.240e-04    5.971e-02  
 -1.8000e-02   -1.199e-06    7.218e-05   -8.692e-04    5.747e-02  
 -1.7000e-02   -1.128e-06    7.141e-05   -8.172e-04    5.484e-02  
 -1.6000e-02   -1.058e-06    7.069e-05   -7.683e-04    5.192e-02  
 -1.5000e-02   -9.886e-07    7.001e-05   -7.225e-04    4.889e-02  
 -1.4000e-02   -9.199e-07    6.937e-05   -6.796e-04    4.584e-02  
 -1.3000e-02   -8.516e-07    6.877e-05   -6.392e-04    4.294e-02  
 -1.2000e-02   -7.840e-07    6.821e-05   -6.011e-04    4.033e-02  
 -1.1000e-02   -7.168e-07    6.768e-05   -5.648e-04    3.810e-02  
 -1.0000e-02   -6.501e-07    6.718e-05   -5.298e-04    3.631e-02  
 -9.0000e-03   -5.838e-07    6.672e-05   -4.955e-04    3.504e-02  
 -8.0000e-03   -5.179e-07    6.629e-05   -4.613e-04    3.434e-02  
 -7.0000e-03   -4.523e-07    6.590e-05   -4.268e-04    3.415e-02  
 -6.0000e-03   -3.871e-07    6.555e-05   -3.915e-04    3.450e-02  
 -5.0000e-03   -3.221e-07    6.523e-05   -3.549e-04    3.533e-02  
 -4.0000e-03   -2.574e-07    6.495e-05   -3.168e-04    3.655e-02  
 -3.0000e-03   -1.929e-07    6.472e-05   -2.769e-04    3.813e-02  
 -2.0000e-03   -1.285e-07    6.453e-05   -2.350e-04    3.994e-02  
 -1.0000e-03   -6.423e-08    6.438e-05   -1.911e-04    4.189e-02  
    0.         -2.608e-15    6.428e-05   -1.454e-04    4.388e-02  
  1.0000e-03    6.423e-08    6.423e-05   -9.797e-05    4.574e-02  
  2.0000e-03    1.285e-07    6.423e-05   -4.933e-05    4.739e-02  
  3.0000e-03    1.929e-07    6.428e-05   -2.345e-12    4.864e-02  
  4.0000e-03    2.574e-07    6.438e-05    4.933e-05    4.933e-02  
  5.0000e-03    3.221e-07    6.453e-05    9.797e-05    4.933e-02  
  6.0000e-03    3.871e-07    6.472e-05    1.454e-04    4.864e-02  
  7.0000e-03    4.523e-07    6.495e-05    1.911e-04    4.739e-02  
  8.0000e-03    5.179e-07    6.523e-05    2.350e-04    4.574e-02  
  9.0000e-03    5.838e-07    6.555e-05    2.769e-04    4.388e-02  
  1.0000e-02    6.501e-07    6.590e-05    3.168e-04    4.189e-02  
  1.1000e-02    7.168e-07    6.629e-05    3.549e-04    3.994e-02  
  1.2000e-02    7.840e-07    6.672e-05    3.915e-04    3.813e-02  
  1.3000e-02    8.516e-07    6.718e-05    4.268e-04    3.656e-02  
  1.4000e-02    9.199e-07    6.768e-05    4.613e-04    3.532e-02  
  1.5000e-02    9.886e-07    6.821e-05    4.955e-04    3.450e-02  
  1.6000e-02    1.058e-06    6.877e-05    5.298e-04    3.415e-02  
  1.7000e-02    1.128e-06    6.937e-05    5.648e-04    3.433e-02  
  1.8000e-02    1.199e-06    7.001e-05    6.011e-04    3.505e-02  
  1.9000e-02    1.270e-06    7.069e-05    6.392e-04    3.631e-02  
  2.0000e-02    1.342e-06    7.141e-05    6.796e-04    3.809e-02  
  2.1000e-02    1.415e-06    7.218e-05    7.225e-04    4.032e-02  
  2.2000e-02    1.489e-06    7.300e-05    7.683e-04    4.295e-02  
  2.3000e-02    1.564e-06    7.387e-05    8.172e-04    4.583e-02  
  2.4000e-02    1.640e-06    7.479e-05    8.692e-04    4.888e-02  
  2.5000e-02    1.717e-06    7.577e-05    9.240e-04    5.193e-02  
  2.6000e-02    1.794e-06    7.682e-05    9.815e-04    5.484e-02  
  2.7000e-02    1.874e-06    7.792e-05    1.041e-03    5.748e-02  
  2.8000e-02    1.954e-06    7.908e-05    1.103e-03    5.971e-02  
  2.9000e-02    2.035e-06    8.031e-05    1.165e-03    6.144e-02  
  3.0000e-02    2.118e-06    8.160e-05    1.228e-03    6.261e-02  
  3.1000e-02    2.203e-06    8.296e-05    1.292e-03    6.316e-02  
  3.2000e-02    2.289e-06    8.437e-05    1.354e-03    6.316e-02  
  3.3000e-02    2.376e-06    8.585e-05    1.416e-03    6.258e-02  
  3.4000e-02    2.465e-06    8.738e-05    1.476e-03    6.152e-02  
  3.5000e-02    2.556e-06    8.897e-05    1.534e-03    6.008e-02  
  3.6000e-02    2.648e-06    9.062e-05    1.591e-03    5.836e-02  
  3.7000e-02    2.742e-06    9.232e-05    1.645e-03    5.641e-02  
  3.8000e-02    2.838e-06    9.406e-05    1.697e-03    5.443e-02  
  3.9000e-02    2.936e-06    9.586e-05    1.748e-03    5.242e-02  
  4.0000e-02    3.035e-06    9.770e-05    1.796e-03    5.042e-02  
  4.1000e-02    3.137e-06    9.959e-05    1.843e-03    4.860e-02  
  4.2000e-02    3.240e-06    1.015e-04    1.889e-03    4.686e-02  
  4.3000e-02    3.346e-06    1.035e-04    1.932e-03    4.531e-02  
  4.4000e-02    3.453e-06    1.055e-04    1.975e-03    4.388e-02  
  4.5000e-02    3.563e-06    1.076e-04    2.017e-03    4.265e-02  
  4.6000e-02    3.675e-06    1.097e-04    2.057e-03    4.150e-02  
  4.7000e-02    3.789e-06    1.118e-04    2.097e-03    4.054e-02  
  4.8000e-02    3.905e-06    1.140e-04    2.135e-03    3.955e-02  
  4.9000e-02    4.023e-06    1.162e-04    2.173e-03    3.882e-02  
  5.0000e-02    4.144e-06    1.184e-04    2.211e-03    3.801e-02  
  5.1000e-02    4.267e-06    1.207e-04    2.247e-03    3.734e-02  
  5.2000e-02    4.392e-06    1.230e-04    2.283e-03    3.662e-02  
  5.3000e-02    4.520e-06    1.254e-04    2.319e-03    3.605e-02  
  5.4000e-02    4.650e-06    1.278e-04    2.354e-03    3.533e-02  
  5.5000e-02    4.783e-06    1.302e-04    2.388e-03    3.477e-02  
  5.6000e-02    4.918e-06    1.327e-04    2.421e-03    3.412e-02  
  5.7000e-02    5.056e-06    1.351e-04    2.454e-03    3.350e-02  
  5.8000e-02    5.196e-06    1.377e-04    2.486e-03    3.286e-02  
  5.9000e-02    5.339e-06    1.402e-04    2.518e-03    3.228e-02  
  6.0000e-02    5.484e-06    1.428e-04    2.549e-03    3.160e-02  
  6.1000e-02    5.632e-06    1.454e-04    2.579e-03    3.095e-02  
  6.2000e-02    5.783e-06    1.480e-04    2.609e-03    3.037e-02  
  6.3000e-02    5.936e-06    1.507e-04    2.638e-03    2.967e-02  
  6.4000e-02    6.093e-06    1.534e-04    2.666e-03    2.904e-02  
  6.5000e-02    6.251e-06    1.561e-04    2.694e-03    2.839e-02  
  6.6000e-02    6.413e-06    1.589e-04    2.721e-03    2.776e-02  
  6.7000e-02    6.577e-06    1.616e-04    2.748e-03    2.703e-02  
  6.8000e-02    6.745e-06    1.644e-04    2.773e-03    2.650e-02  
  6.9000e-02    6.915e-06    1.673e-04    2.799e-03    2.574e-02  
  7.0000e-02    7.088e-06    1.701e-04    2.823e-03    2.517e-02  
  7.1000e-02    7.264e-06    1.730e-04    2.847e-03    2.447e-02  
  7.2000e-02    7.442e-06    1.759e-04    2.870e-03    2.385e-02  
  7.3000e-02    7.624e-06    1.788e-04    2.893e-03    2.323e-02  
  7.4000e-02    7.809e-06    1.817e-04    2.915e-03    2.255e-02  
  7.5000e-02    7.997e-06    1.847e-04    2.936e-03    2.201e-02  
  7.6000e-02    8.187e-06    1.877e-04    2.957e-03    2.130e-02  
  7.7000e-02    8.381e-06    1.906e-04    2.977e-03    2.072e-02  
  7.8000e-02    8.578e-06    1.937e-04    2.996e-03    2.014e-02  
  7.9000e-02    8.777e-06    1.967e-04    3.015e-03    1.945e-02  
  8.0000e-02    8.980e-06    1.997e-04    3.034e-03    1.899e-02  
  8.1000e-02    9.186e-06    2.028e-04    3.051e-03    1.828e-02  
  8.2000e-02    9.395e-06    2.059e-04    3.068e-03    1.781e-02  
  8.3000e-02    9.607e-06    2.090e-04    3.085e-03    1.711e-02  
  8.4000e-02    9.822e-06    2.121e-04    3.101e-03    1.663e-02  
  8.5000e-02    1.004e-05    2.153e-04    3.117e-03    1.606e-02  
  8.6000e-02    1.026e-05    2.184e-04    3.132e-03    1.545e-02  
  8.7000e-02    1.049e-05    2.216e-04    3.146e-03    1.502e-02  
  8.8000e-02    1.071e-05    2.247e-04    3.160e-03    1.427e-02  
  8.9000e-02    1.095e-05    2.279e-04    3.173e-03    1.400e-02  
  9.0000e-02    1.118e-05    2.311e-04    3.186e-03    1.329e-02  
  9.1000e-02    1.142e-05    2.343e-04    3.198e-03    1.283e-02  
  9.2000e-02    1.166e-05    2.375e-04    3.210e-03    1.234e-02  
  9.3000e-02    1.190e-05    2.408e-04    3.221e-03    1.177e-02  
  9.4000e-02    1.215e-05    2.440e-04    3.232e-03    1.135e-02  
  9.5000e-02    1.240e-05    2.473e-04    3.243e-03    1.083e-02  
  9.6000e-02    1.265e-05    2.505e-04    3.253e-03    1.029e-02  
  9.7000e-02    1.291e-05    2.538e-04    3.262e-03    9.933e-03  
  9.8000e-02    1.317e-05    2.571e-04    3.271e-03    9.379e-03  
  9.9000e-02    1.344e-05    2.604e-04    3.279e-03    8.953e-03  
    0.10000     1.370e-05    2.637e-04    3.287e-03    8.455e-03  
y
x

        volt    param      
                    gx4    
   -0.10000    -2.146e-02  
 -9.9000e-02     -2.7846   
 -9.8000e-02    -82.0877   
 -9.7000e-02   -2.327e+03  
 -9.6000e-02   -1.375e+07  
 -9.5000e-02    4.153e+07  
 -9.4000e-02   -4.180e+07  
 -9.3000e-02    1.402e+07  
 -9.2000e-02      0.3553   
 -9.1000e-02      0.4832   
 -9.0000e-02      0.4690   
 -8.9000e-02      0.4263   
 -8.8000e-02      0.4263   
 -8.7000e-02      0.5400   
 -8.6000e-02      0.4263   
 -8.5000e-02      0.4974   
 -8.4000e-02      0.4832   
 -8.3000e-02      0.4832   
 -8.2000e-02      0.5542   
 -8.1000e-02      0.4690   
 -8.0000e-02      0.4974   
 -7.9000e-02      0.6111   
 -7.8000e-02      0.4121   
 -7.7000e-02      0.6395   
 -7.6000e-02      0.4690   
 -7.5000e-02      0.6395   
 -7.4000e-02      0.5258   
 -7.3000e-02      0.5258   
 -7.2000e-02      0.5969   
 -7.1000e-02      0.6253   
 -7.0000e-02      0.5258   
 -6.9000e-02      0.6253   
 -6.8000e-02      0.6679   
 -6.7000e-02      0.4690   
 -6.6000e-02      0.7248   
 -6.5000e-02      0.5826   
 -6.4000e-02      0.5969   
 -6.3000e-02      0.6821   
 -6.2000e-02      0.6111   
 -6.1000e-02      0.7248   
 -6.0000e-02      0.4121   
 -5.9000e-02      0.9237   
 -5.8000e-02      0.4619   
 -5.7000e-02      0.7674   
 -5.6000e-02      0.5400   
 -5.5000e-02      0.7603   
 -5.4000e-02      0.5898   
 -5.3000e-02      0.6466   
 -5.2000e-02      0.6892   
 -5.1000e-02      0.6111   
 -5.0000e-02      0.6182   
 -4.9000e-02      0.6750   
 -4.8000e-02      0.6182   
 -4.7000e-02      0.6040   
 -4.6000e-02      0.6608   
 -4.5000e-02      0.5542   
 -4.4000e-02      0.7176   
 -4.3000e-02      0.5542   
 -4.2000e-02      0.6750   
 -4.1000e-02      0.6679   
 -4.0000e-02      0.7176   
 -3.9000e-02      0.7461   
 -3.8000e-02      0.8384   
 -3.7000e-02      0.8598   
 -3.6000e-02      1.0232   
 -3.5000e-02      1.1724   
 -3.4000e-02      1.1937   
 -3.3000e-02      1.4140   
 -3.2000e-02      1.6342   
 -3.1000e-02      1.6271   
 -3.0000e-02      1.8900   
 -2.9000e-02      2.0037   
 -2.8000e-02      1.9611   
 -2.7000e-02      2.0428   
 -2.6000e-02      1.8936   
 -2.5000e-02      1.7479   
 -2.4000e-02      1.4460   
 -2.3000e-02      1.0552   
 -2.2000e-02      0.5471   
 -2.1000e-02    4.619e-02  
 -2.0000e-02     -0.5613   
 -1.9000e-02     -1.1831   
 -1.8000e-02     -1.7231   
 -1.7000e-02     -2.2382   
 -1.6000e-02     -2.6290   
 -1.5000e-02     -2.9203   
 -1.4000e-02     -3.0376   
 -1.3000e-02     -3.0447   
 -1.2000e-02     -2.9043   
 -1.1000e-02     -2.6112   
 -1.0000e-02     -2.2276   
 -9.0000e-03     -1.7906   
 -8.0000e-03     -1.2683   
 -7.0000e-03     -0.6981   
 -6.0000e-03     -0.1918   
 -5.0000e-03      0.3464   
 -4.0000e-03      0.8304   
 -3.0000e-03      1.2284   
 -2.0000e-03      1.5712   
 -1.0000e-03      1.8154   
    0.            1.9522   
  1.0000e-03      1.9833   
  2.0000e-03      1.8687   
  3.0000e-03      1.6436   
  4.0000e-03      1.2471   
  5.0000e-03      0.6984   
  6.0000e-03    1.181e-04  
  7.0000e-03     -0.6986   
  8.0000e-03     -1.2478   
  9.0000e-03     -1.6426   
  1.0000e-02     -1.8676   
  1.1000e-02     -1.9846   
  1.2000e-02     -1.9540   
  1.3000e-02     -1.8128   
  1.4000e-02     -1.5703   
  1.5000e-02     -1.2337   
  1.6000e-02     -0.8269   
  1.7000e-02     -0.3411   
  1.8000e-02      0.1776   
  1.9000e-02      0.7159   
  2.0000e-02      1.2594   
  2.1000e-02      1.7835   
  2.2000e-02      2.2311   
  2.3000e-02      2.6326   
  2.4000e-02      2.8759   
  2.5000e-02      3.0518   
  2.6000e-02      3.0447   
  2.7000e-02      2.9132   
  2.8000e-02      2.6397   
  2.9000e-02      2.2276   
  3.0000e-02      1.7302   
  3.1000e-02      1.1759   
  3.2000e-02      0.5507   
  3.3000e-02   -7.105e-03  
  3.4000e-02     -0.5755   
  3.5000e-02     -1.0623   
  3.6000e-02     -1.4424   
  3.7000e-02     -1.7160   
  3.8000e-02     -1.9469   
  3.9000e-02     -1.9860   
  4.0000e-02     -2.0108   
  4.1000e-02     -1.9966   
  4.2000e-02     -1.8190   
  4.3000e-02     -1.7408   
  4.4000e-02     -1.5490   
  4.5000e-02     -1.4353   
  4.6000e-02     -1.2292   
  4.7000e-02     -1.1511   
  4.8000e-02     -0.9521   
  4.9000e-02     -0.9948   
  5.0000e-02     -0.7248   
  5.1000e-02     -0.8171   
  5.2000e-02     -0.6679   
  5.3000e-02     -0.7176   
  5.4000e-02     -0.5755   
  5.5000e-02     -0.7176   
  5.6000e-02     -0.5613   
  5.7000e-02     -0.6466   
  5.8000e-02     -0.6182   
  5.9000e-02     -0.6395   
  6.0000e-02     -0.5826   
  6.1000e-02     -0.6750   
  6.2000e-02     -0.6537   
  6.3000e-02     -0.5826   
  6.4000e-02     -0.6963   
  6.5000e-02     -0.6324   
  6.6000e-02     -0.6537   
  6.7000e-02     -0.6253   
  6.8000e-02     -0.7319   
  6.9000e-02     -0.5329   
  7.0000e-02     -0.7603   
  7.1000e-02     -0.5684   
  7.2000e-02     -0.6963   
  7.3000e-02     -0.6253   
  7.4000e-02     -0.6111   
  7.5000e-02     -0.6821   
  7.6000e-02     -0.5400   
  7.7000e-02     -0.7105   
  7.8000e-02     -0.5826   
  7.9000e-02     -0.5826   
  8.0000e-02     -0.6821   
  8.1000e-02     -0.4690   
  8.2000e-02     -0.7105   
  8.3000e-02     -0.4690   
  8.4000e-02     -0.6963   
  8.5000e-02     -0.4832   
  8.6000e-02     -0.5684   
  8.7000e-02     -0.6111   
  8.8000e-02     -0.4263   
  8.9000e-02     -0.7532   
  9.0000e-02     -0.2700   
  9.1000e-02     -0.7105   
  9.2000e-02     -0.4547   
  9.3000e-02     -0.4974   
  9.4000e-02     -0.5684   
  9.5000e-02     -0.4121   
  9.6000e-02     -0.5258   
  9.7000e-02     -0.5400   
  9.8000e-02     -0.3553   
  9.9000e-02     -0.5542   
    0.10000      -0.4263   
y
-----------------------------------------------
 ******  
 *sample netlist for bsim-mg

  ******  dc transfer curves tnom=  25.000 temp=  25.000 *****

   *** source        0:vgate =    0.4000        ***

x

        volt    param        param        param        param      
                    ids          gx           gx2          gx3    
   -0.10000    -9.957e-05   -1.370e-04   -2.637e-03   -3.287e-02  
 -9.9000e-02   -9.865e-05     -0.1133      -0.4007      -5.9240   
 -9.8000e-02   -9.773e-05    9.234e-04   -113.1389    -398.0569   
 -9.7000e-02   -9.680e-05    9.240e-04    114.1993    -1.127e+05  
 -9.6000e-02   -9.588e-05    9.246e-04    6.219e-04    2.273e+05  
 -9.5000e-02   -9.495e-05    9.253e-04    6.526e-04   -1.142e+05  
 -9.4000e-02   -9.402e-05    9.260e-04    6.835e-04    3.072e-02  
 -9.3000e-02   -9.310e-05    9.268e-04    7.148e-04    3.091e-02  
 -9.2000e-02   -9.217e-05    9.276e-04    7.462e-04    3.128e-02  
 -9.1000e-02   -9.124e-05    9.284e-04    7.779e-04    3.141e-02  
 -9.0000e-02   -9.031e-05    9.292e-04    8.098e-04    3.176e-02  
 -8.9000e-02   -8.938e-05    9.301e-04    8.420e-04    3.187e-02  
 -8.8000e-02   -8.845e-05    9.310e-04    8.744e-04    3.220e-02  
 -8.7000e-02   -8.751e-05    9.319e-04    9.070e-04    3.236e-02  
 -8.6000e-02   -8.658e-05    9.329e-04    9.398e-04    3.260e-02  
 -8.5000e-02   -8.564e-05    9.339e-04    9.728e-04    3.280e-02  
 -8.4000e-02   -8.471e-05    9.349e-04    1.006e-03    3.303e-02  
 -8.3000e-02   -8.377e-05    9.360e-04    1.039e-03    3.315e-02  
 -8.2000e-02   -8.283e-05    9.371e-04    1.073e-03    3.345e-02  
 -8.1000e-02   -8.189e-05    9.383e-04    1.107e-03    3.361e-02  
 -8.0000e-02   -8.095e-05    9.394e-04    1.141e-03    3.386e-02  
 -7.9000e-02   -8.001e-05    9.407e-04    1.175e-03    3.403e-02  
 -7.8000e-02   -7.907e-05    9.419e-04    1.210e-03    3.423e-02  
 -7.7000e-02   -7.812e-05    9.432e-04    1.244e-03    3.459e-02  
 -7.6000e-02   -7.718e-05    9.445e-04    1.279e-03    3.467e-02  
 -7.5000e-02   -7.623e-05    9.458e-04    1.315e-03    3.506e-02  
 -7.4000e-02   -7.528e-05    9.472e-04    1.350e-03    3.520e-02  
 -7.3000e-02   -7.433e-05    9.486e-04    1.386e-03    3.551e-02  
 -7.2000e-02   -7.338e-05    9.501e-04    1.422e-03    3.584e-02  
 -7.1000e-02   -7.243e-05    9.516e-04    1.458e-03    3.600e-02  
 -7.0000e-02   -7.147e-05    9.531e-04    1.495e-03    3.634e-02  
 -6.9000e-02   -7.051e-05    9.547e-04    1.532e-03    3.662e-02  
 -6.8000e-02   -6.956e-05    9.563e-04    1.569e-03    3.688e-02  
 -6.7000e-02   -6.860e-05    9.580e-04    1.606e-03    3.699e-02  
 -6.6000e-02   -6.764e-05    9.596e-04    1.644e-03    3.747e-02  
 -6.5000e-02   -6.667e-05    9.614e-04    1.681e-03    3.745e-02  
 -6.4000e-02   -6.571e-05    9.631e-04    1.719e-03    3.774e-02  
 -6.3000e-02   -6.474e-05    9.649e-04    1.757e-03    3.776e-02  
 -6.2000e-02   -6.377e-05    9.667e-04    1.795e-03    3.786e-02  
 -6.1000e-02   -6.280e-05    9.686e-04    1.833e-03    3.779e-02  
 -6.0000e-02   -6.183e-05    9.705e-04    1.870e-03    3.775e-02  
 -5.9000e-02   -6.086e-05    9.725e-04    1.907e-03    3.746e-02  
 -5.8000e-02   -5.988e-05    9.744e-04    1.944e-03    3.720e-02  
 -5.7000e-02   -5.890e-05    9.765e-04    1.980e-03    3.669e-02  
 -5.6000e-02   -5.792e-05    9.785e-04    2.015e-03    3.612e-02  
 -5.5000e-02   -5.694e-05    9.806e-04    2.050e-03    3.530e-02  
 -5.4000e-02   -5.595e-05    9.827e-04    2.083e-03    3.440e-02  
 -5.3000e-02   -5.497e-05    9.848e-04    2.115e-03    3.324e-02  
 -5.2000e-02   -5.398e-05    9.870e-04    2.145e-03    3.189e-02  
 -5.1000e-02   -5.298e-05    9.892e-04    2.174e-03    3.033e-02  
 -5.0000e-02   -5.199e-05    9.914e-04    2.200e-03    2.855e-02  
 -4.9000e-02   -5.099e-05    9.937e-04    2.225e-03    2.649e-02  
 -4.8000e-02   -5.000e-05    9.960e-04    2.246e-03    2.427e-02  
 -4.7000e-02   -4.900e-05    9.982e-04    2.265e-03    2.168e-02  
 -4.6000e-02   -4.799e-05    1.001e-03    2.281e-03    1.899e-02  
 -4.5000e-02   -4.699e-05    1.003e-03    2.294e-03    1.589e-02  
 -4.4000e-02   -4.598e-05    1.005e-03    2.303e-03    1.272e-02  
 -4.3000e-02   -4.497e-05    1.007e-03    2.309e-03    9.187e-03  
 -4.2000e-02   -4.396e-05    1.010e-03    2.310e-03    5.528e-03  
 -4.1000e-02   -4.294e-05    1.012e-03    2.308e-03    1.556e-03  
 -4.0000e-02   -4.193e-05    1.014e-03    2.301e-03   -2.473e-03  
 -3.9000e-02   -4.091e-05    1.017e-03    2.290e-03   -6.757e-03  
 -3.8000e-02   -3.989e-05    1.019e-03    2.274e-03   -1.113e-02  
 -3.7000e-02   -3.886e-05    1.021e-03    2.254e-03   -1.565e-02  
 -3.6000e-02   -3.784e-05    1.023e-03    2.229e-03   -2.024e-02  
 -3.5000e-02   -3.681e-05    1.025e-03    2.200e-03   -2.483e-02  
 -3.4000e-02   -3.578e-05    1.028e-03    2.165e-03   -2.952e-02  
 -3.3000e-02   -3.475e-05    1.030e-03    2.127e-03   -3.414e-02  
 -3.2000e-02   -3.372e-05    1.032e-03    2.084e-03   -3.865e-02  
 -3.1000e-02   -3.268e-05    1.034e-03    2.036e-03   -4.317e-02  
 -3.0000e-02   -3.164e-05    1.036e-03    1.984e-03   -4.751e-02  
 -2.9000e-02   -3.060e-05    1.038e-03    1.929e-03   -5.168e-02  
 -2.8000e-02   -2.956e-05    1.039e-03    1.869e-03   -5.561e-02  
 -2.7000e-02   -2.852e-05    1.041e-03    1.807e-03   -5.940e-02  
 -2.6000e-02   -2.748e-05    1.043e-03    1.740e-03   -6.285e-02  
 -2.5000e-02   -2.643e-05    1.044e-03    1.672e-03   -6.602e-02  
 -2.4000e-02   -2.538e-05    1.046e-03    1.600e-03   -6.886e-02  
 -2.3000e-02   -2.433e-05    1.047e-03    1.527e-03   -7.137e-02  
 -2.2000e-02   -2.328e-05    1.049e-03    1.452e-03   -7.350e-02  
 -2.1000e-02   -2.223e-05    1.050e-03    1.375e-03   -7.525e-02  
 -2.0000e-02   -2.118e-05    1.051e-03    1.297e-03   -7.658e-02  
 -1.9000e-02   -2.013e-05    1.052e-03    1.219e-03   -7.752e-02  
 -1.8000e-02   -1.907e-05    1.053e-03    1.141e-03   -7.801e-02  
 -1.7000e-02   -1.802e-05    1.054e-03    1.063e-03   -7.813e-02  
 -1.6000e-02   -1.696e-05    1.055e-03    9.864e-04   -7.780e-02  
 -1.5000e-02   -1.590e-05    1.056e-03    9.105e-04   -7.705e-02  
 -1.4000e-02   -1.485e-05    1.057e-03    8.361e-04   -7.594e-02  
 -1.3000e-02   -1.379e-05    1.058e-03    7.635e-04   -7.442e-02  
 -1.2000e-02   -1.273e-05    1.058e-03    6.932e-04   -7.255e-02  
 -1.1000e-02   -1.167e-05    1.059e-03    6.254e-04   -7.032e-02  
 -1.0000e-02   -1.061e-05    1.059e-03    5.604e-04   -6.781e-02  
 -9.0000e-03   -9.551e-06    1.060e-03    4.984e-04   -6.501e-02  
 -8.0000e-03   -8.490e-06    1.060e-03    4.396e-04   -6.198e-02  
 -7.0000e-03   -7.430e-06    1.060e-03    3.843e-04   -5.875e-02  
 -6.0000e-03   -6.369e-06    1.061e-03    3.323e-04   -5.539e-02  
 -5.0000e-03   -5.307e-06    1.061e-03    2.838e-04   -5.194e-02  
 -4.0000e-03   -4.246e-06    1.061e-03    2.388e-04   -4.846e-02  
 -3.0000e-03   -3.185e-06    1.061e-03    1.971e-04   -4.502e-02  
 -2.0000e-03   -2.123e-06    1.061e-03    1.586e-04   -4.169e-02  
 -1.0000e-03   -1.062e-06    1.062e-03    1.229e-04   -3.855e-02  
    0.         -1.768e-14    1.062e-03    8.971e-05   -3.569e-02  
  1.0000e-03    1.062e-06    1.062e-03    5.856e-05   -3.318e-02  
  2.0000e-03    2.123e-06    1.062e-03    2.889e-05   -3.114e-02  
  3.0000e-03    3.185e-06    1.062e-03    2.808e-10   -2.968e-02  
  4.0000e-03    4.246e-06    1.062e-03   -2.889e-05   -2.889e-02  
  5.0000e-03    5.307e-06    1.061e-03   -5.856e-05   -2.889e-02  
  6.0000e-03    6.369e-06    1.061e-03   -8.971e-05   -2.967e-02  
  7.0000e-03    7.430e-06    1.061e-03   -1.229e-04   -3.114e-02  
  8.0000e-03    8.490e-06    1.061e-03   -1.586e-04   -3.319e-02  
  9.0000e-03    9.551e-06    1.061e-03   -1.971e-04   -3.568e-02  
  1.0000e-02    1.061e-05    1.060e-03   -2.388e-04   -3.856e-02  
  1.1000e-02    1.167e-05    1.060e-03   -2.838e-04   -4.170e-02  
  1.2000e-02    1.273e-05    1.060e-03   -3.323e-04   -4.502e-02  
  1.3000e-02    1.379e-05    1.059e-03   -3.842e-04   -4.847e-02  
  1.4000e-02    1.485e-05    1.059e-03   -4.396e-04   -5.193e-02  
  1.5000e-02    1.590e-05    1.058e-03   -4.984e-04   -5.540e-02  
  1.6000e-02    1.696e-05    1.058e-03   -5.604e-04   -5.875e-02  
  1.7000e-02    1.802e-05    1.057e-03   -6.254e-04   -6.197e-02  
  1.8000e-02    1.907e-05    1.056e-03   -6.932e-04   -6.502e-02  
  1.9000e-02    2.013e-05    1.055e-03   -7.635e-04   -6.780e-02  
  2.0000e-02    2.118e-05    1.054e-03   -8.361e-04   -7.033e-02  
  2.1000e-02    2.223e-05    1.053e-03   -9.105e-04   -7.254e-02  
  2.2000e-02    2.328e-05    1.052e-03   -9.864e-04   -7.442e-02  
  2.3000e-02    2.433e-05    1.051e-03   -1.063e-03   -7.595e-02  
  2.4000e-02    2.538e-05    1.050e-03   -1.141e-03   -7.705e-02  
  2.5000e-02    2.643e-05    1.049e-03   -1.219e-03   -7.782e-02  
  2.6000e-02    2.748e-05    1.047e-03   -1.297e-03   -7.810e-02  
  2.7000e-02    2.852e-05    1.046e-03   -1.375e-03   -7.804e-02  
  2.8000e-02    2.956e-05    1.044e-03   -1.452e-03   -7.751e-02  
  2.9000e-02    3.060e-05    1.043e-03   -1.527e-03   -7.659e-02  
  3.0000e-02    3.164e-05    1.041e-03   -1.600e-03   -7.523e-02  
  3.1000e-02    3.268e-05    1.039e-03   -1.672e-03   -7.349e-02  
  3.2000e-02    3.372e-05    1.038e-03   -1.741e-03   -7.138e-02  
  3.3000e-02    3.475e-05    1.036e-03   -1.807e-03   -6.887e-02  
  3.4000e-02    3.578e-05    1.034e-03   -1.869e-03   -6.601e-02  
  3.5000e-02    3.681e-05    1.032e-03   -1.929e-03   -6.285e-02  
  3.6000e-02    3.784e-05    1.030e-03   -1.984e-03   -5.938e-02  
  3.7000e-02    3.886e-05    1.028e-03   -2.036e-03   -5.562e-02  
  3.8000e-02    3.989e-05    1.025e-03   -2.084e-03   -5.171e-02  
  3.9000e-02    4.091e-05    1.023e-03   -2.127e-03   -4.747e-02  
  4.0000e-02    4.193e-05    1.021e-03   -2.165e-03   -4.317e-02  
  4.1000e-02    4.294e-05    1.019e-03   -2.200e-03   -3.869e-02  
  4.2000e-02    4.396e-05    1.017e-03   -2.229e-03   -3.412e-02  
  4.3000e-02    4.497e-05    1.014e-03   -2.254e-03   -2.951e-02  
  4.4000e-02    4.598e-05    1.012e-03   -2.274e-03   -2.483e-02  
  4.5000e-02    4.699e-05    1.010e-03   -2.290e-03   -2.024e-02  
  4.6000e-02    4.799e-05    1.007e-03   -2.301e-03   -1.566e-02  
  4.7000e-02    4.900e-05    1.005e-03   -2.308e-03   -1.113e-02  
  4.8000e-02    5.000e-05    1.003e-03   -2.310e-03   -6.736e-03  
  4.9000e-02    5.099e-05    1.001e-03   -2.309e-03   -2.501e-03  
  5.0000e-02    5.199e-05    9.982e-04   -2.303e-03    1.592e-03  
  5.1000e-02    5.298e-05    9.960e-04   -2.294e-03    5.485e-03  
  5.2000e-02    5.398e-05    9.937e-04   -2.281e-03    9.216e-03  
  5.3000e-02    5.497e-05    9.914e-04   -2.265e-03    1.270e-02  
  5.4000e-02    5.595e-05    9.892e-04   -2.246e-03    1.592e-02  
  5.5000e-02    5.694e-05    9.870e-04   -2.225e-03    1.896e-02  
  5.6000e-02    5.792e-05    9.848e-04   -2.200e-03    2.172e-02  
  5.7000e-02    5.890e-05    9.827e-04   -2.174e-03    2.424e-02  
  5.8000e-02    5.988e-05    9.806e-04   -2.145e-03    2.650e-02  
  5.9000e-02    6.086e-05    9.785e-04   -2.115e-03    2.853e-02  
  6.0000e-02    6.183e-05    9.765e-04   -2.083e-03    3.036e-02  
  6.1000e-02    6.280e-05    9.744e-04   -2.050e-03    3.185e-02  
  6.2000e-02    6.377e-05    9.725e-04   -2.015e-03    3.327e-02  
  6.3000e-02    6.474e-05    9.705e-04   -1.980e-03    3.435e-02  
  6.4000e-02    6.571e-05    9.686e-04   -1.944e-03    3.536e-02  
  6.5000e-02    6.667e-05    9.667e-04   -1.907e-03    3.606e-02  
  6.6000e-02    6.764e-05    9.649e-04   -1.870e-03    3.671e-02  
  6.7000e-02    6.860e-05    9.631e-04   -1.833e-03    3.719e-02  
  6.8000e-02    6.956e-05    9.614e-04   -1.795e-03    3.747e-02  
  6.9000e-02    7.051e-05    9.596e-04   -1.757e-03    3.769e-02  
  7.0000e-02    7.147e-05    9.580e-04   -1.719e-03    3.788e-02  
  7.1000e-02    7.243e-05    9.563e-04   -1.681e-03    3.779e-02  
  7.2000e-02    7.338e-05    9.547e-04   -1.644e-03    3.783e-02  
  7.3000e-02    7.433e-05    9.531e-04   -1.606e-03    3.764e-02  
  7.4000e-02    7.528e-05    9.516e-04   -1.569e-03    3.757e-02  
  7.5000e-02    7.623e-05    9.501e-04   -1.532e-03    3.733e-02  
  7.6000e-02    7.718e-05    9.486e-04   -1.495e-03    3.709e-02  
  7.7000e-02    7.812e-05    9.472e-04   -1.458e-03    3.686e-02  
  7.8000e-02    7.907e-05    9.458e-04   -1.422e-03    3.658e-02  
  7.9000e-02    8.001e-05    9.445e-04   -1.386e-03    3.637e-02  
  8.0000e-02    8.095e-05    9.432e-04   -1.350e-03    3.602e-02  
  8.1000e-02    8.189e-05    9.419e-04   -1.315e-03    3.580e-02  
  8.2000e-02    8.283e-05    9.407e-04   -1.279e-03    3.551e-02  
  8.3000e-02    8.377e-05    9.394e-04   -1.244e-03    3.524e-02  
  8.4000e-02    8.471e-05    9.383e-04   -1.210e-03    3.502e-02  
  8.5000e-02    8.564e-05    9.371e-04   -1.175e-03    3.469e-02  
  8.6000e-02    8.658e-05    9.360e-04   -1.141e-03    3.459e-02  
  8.7000e-02    8.751e-05    9.349e-04   -1.107e-03    3.422e-02  
  8.8000e-02    8.845e-05    9.339e-04   -1.073e-03    3.406e-02  
  8.9000e-02    8.938e-05    9.329e-04   -1.039e-03    3.385e-02  
  9.0000e-02    9.031e-05    9.319e-04   -1.006e-03    3.364e-02  
  9.1000e-02    9.124e-05    9.310e-04   -9.728e-04    3.338e-02  
  9.2000e-02    9.217e-05    9.301e-04   -9.398e-04    3.321e-02  
  9.3000e-02    9.310e-05    9.292e-04   -9.070e-04    3.301e-02  
  9.4000e-02    9.402e-05    9.284e-04   -8.744e-04    3.281e-02  
  9.5000e-02    9.495e-05    9.276e-04   -8.420e-04    3.256e-02  
  9.6000e-02    9.588e-05    9.268e-04   -8.098e-04    3.240e-02  
  9.7000e-02    9.680e-05    9.260e-04   -7.779e-04    3.217e-02  
  9.8000e-02    9.773e-05    9.253e-04   -7.462e-04    3.192e-02  
  9.9000e-02    9.865e-05    9.246e-04   -7.147e-04    3.170e-02  
    0.10000     9.957e-05    9.240e-04   -6.835e-04    3.146e-02  
y
x

        volt    param      
                    gx4    
   -0.10000    -8.455e-02  
 -9.9000e-02    -41.3290   
 -9.8000e-02   -5.891e+03  
 -9.7000e-02   -3.921e+05  
 -9.6000e-02   -1.123e+08  
 -9.5000e-02    3.400e+08  
 -9.4000e-02   -3.415e+08  
 -9.3000e-02    1.142e+08  
 -9.2000e-02      0.1847   
 -9.1000e-02      0.3695   
 -9.0000e-02      0.1279   
 -8.9000e-02      0.3553   
 -8.8000e-02      0.1137   
 -8.7000e-02      0.3268   
 -8.6000e-02      0.1563   
 -8.5000e-02      0.2416   
 -8.4000e-02      0.1990   
 -8.3000e-02      0.2274   
 -8.2000e-02      0.1279   
 -8.1000e-02      0.2984   
 -8.0000e-02      0.1563   
 -7.9000e-02      0.2558   
 -7.8000e-02      0.1705   
 -7.7000e-02      0.1990   
 -7.6000e-02      0.3553   
 -7.5000e-02    8.527e-02  
 -7.4000e-02      0.3837   
 -7.3000e-02      0.1421   
 -7.2000e-02      0.3126   
 -7.1000e-02      0.3268   
 -7.0000e-02      0.1563   
 -6.9000e-02      0.3411   
 -6.8000e-02      0.2842   
 -6.7000e-02      0.2558   
 -6.6000e-02      0.1137   
 -6.5000e-02      0.4832   
 -6.4000e-02   -2.842e-02  
 -6.3000e-02      0.2984   
 -6.2000e-02    1.421e-02  
 -6.1000e-02    9.948e-02  
 -6.0000e-02   -6.395e-02  
 -5.9000e-02   -4.263e-02  
 -5.8000e-02     -0.2913   
 -5.7000e-02     -0.2629   
 -5.6000e-02     -0.5116   
 -5.5000e-02     -0.5684   
 -5.4000e-02     -0.8171   
 -5.3000e-02     -0.9024   
 -5.2000e-02     -1.1582   
 -5.1000e-02     -1.3500   
 -5.0000e-02     -1.5632   
 -4.9000e-02     -1.7764   
 -4.8000e-02     -2.0606   
 -4.7000e-02     -2.2240   
 -4.6000e-02     -2.5864   
 -4.5000e-02     -2.6859   
 -4.4000e-02     -3.0980   
 -4.3000e-02     -3.1761   
 -4.2000e-02     -3.5314   
 -4.1000e-02     -3.6593   
 -4.0000e-02     -3.9719   
 -3.9000e-02     -4.0288   
 -3.8000e-02     -4.2846   
 -3.7000e-02     -4.3769   
 -3.6000e-02     -4.5119   
 -3.5000e-02     -4.5972   
 -3.4000e-02     -4.5830   
 -3.3000e-02     -4.6896   
 -3.2000e-02     -4.6256   
 -3.1000e-02     -4.5119   
 -3.0000e-02     -4.5191   
 -2.9000e-02     -4.3343   
 -2.8000e-02     -4.1780   
 -2.7000e-02     -3.9257   
 -2.6000e-02     -3.7907   
 -2.5000e-02     -3.4497   
 -2.4000e-02     -3.1690   
 -2.3000e-02     -2.8422   
 -2.2000e-02     -2.5082   
 -2.1000e-02     -2.1281   
 -2.0000e-02     -1.7479   
 -1.9000e-02     -1.3287   
 -1.8000e-02     -0.9486   
 -1.7000e-02     -0.4867   
 -1.6000e-02     -0.1208   
 -1.5000e-02      0.3304   
 -1.4000e-02      0.7461   
 -1.3000e-02      1.1120   
 -1.2000e-02      1.5241   
 -1.1000e-02      1.8687   
 -1.0000e-02      2.2311   
 -9.0000e-03      2.5064   
 -8.0000e-03      2.8066   
 -7.0000e-03      3.0287   
 -6.0000e-03      3.2259   
 -5.0000e-03      3.3626   
 -4.0000e-03      3.4470   
 -3.0000e-03      3.4799   
 -2.0000e-03      3.4399   
 -1.0000e-03      3.3298   
    0.            3.1375   
  1.0000e-03      2.8657   
  2.0000e-03      2.5044   
  3.0000e-03      2.0401   
  4.0000e-03      1.4691   
  5.0000e-03      0.7866   
  6.0000e-03   -1.065e-03  
  7.0000e-03     -0.7846   
  8.0000e-03     -1.4703   
  9.0000e-03     -2.0424   
  1.0000e-02     -2.4971   
  1.1000e-02     -2.8724   
  1.2000e-02     -3.1393   
  1.3000e-02     -3.3218   
  1.4000e-02     -3.4506   
  1.5000e-02     -3.4639   
  1.6000e-02     -3.4657   
  1.7000e-02     -3.3484   
  1.8000e-02     -3.2276   
  1.9000e-02     -3.0447   
  2.0000e-02     -2.7836   
  2.1000e-02     -2.5260   
  2.2000e-02     -2.2169   
  2.3000e-02     -1.8705   
  2.4000e-02     -1.5312   
  2.5000e-02     -1.1013   
  2.6000e-02     -0.7745   
  2.7000e-02     -0.2807   
  2.8000e-02    6.750e-02  
  2.9000e-02      0.5294   
  3.0000e-02      0.9130   
  3.1000e-02      1.3607   
  3.2000e-02      1.7408   
  3.3000e-02      2.1103   
  3.4000e-02      2.5082   
  3.5000e-02      2.8635   
  3.6000e-02      3.1548   
  3.7000e-02      3.4710   
  3.8000e-02      3.7588   
  3.9000e-02      3.9186   
  4.0000e-02      4.2348   
  4.1000e-02      4.2988   
  4.2000e-02      4.4835   
  4.3000e-02      4.5688   
  4.4000e-02      4.6114   
  4.5000e-02      4.6754   
  4.6000e-02      4.5972   
  4.7000e-02      4.5759   
  4.8000e-02      4.5262   
  4.9000e-02      4.3983   
  5.0000e-02      4.2348   
  5.1000e-02      4.0927   
  5.2000e-02      3.8938   
  5.3000e-02      3.7303   
  5.4000e-02      3.4888   
  5.5000e-02      3.2117   
  5.6000e-02      3.0411   
  5.7000e-02      2.7640   
  5.8000e-02      2.5153   
  5.9000e-02      2.2666   
  6.0000e-02      2.0250   
  6.1000e-02      1.8332   
  6.2000e-02      1.4850   
  6.3000e-02      1.4282   
  6.4000e-02      1.0800   
  6.5000e-02      1.0090   
  6.6000e-02      0.6963   
  6.7000e-02      0.6537   
  6.8000e-02      0.4761   
  6.9000e-02      0.2842   
  7.0000e-02      0.2203   
  7.1000e-02      0.1847   
  7.2000e-02   -9.237e-02  
  7.3000e-02    4.263e-02  
  7.4000e-02     -0.1847   
  7.5000e-02   -7.105e-02  
  7.6000e-02     -0.2416   
  7.7000e-02     -0.2416   
  7.8000e-02     -0.2274   
  7.9000e-02     -0.2842   
  8.0000e-02     -0.2132   
  8.1000e-02     -0.3411   
  8.2000e-02     -0.2274   
  8.3000e-02     -0.2842   
  8.4000e-02     -0.2700   
  8.5000e-02     -0.2274   
  8.6000e-02     -0.3268   
  8.7000e-02   -9.948e-02  
  8.8000e-02     -0.3695   
  8.9000e-02     -0.1563   
  9.0000e-02     -0.2132   
  9.1000e-02     -0.2132   
  9.2000e-02     -0.2558   
  9.3000e-02     -0.1705   
  9.4000e-02     -0.1990   
  9.5000e-02     -0.1990   
  9.6000e-02     -0.2558   
  9.7000e-02     -0.1563   
  9.8000e-02     -0.2274   
  9.9000e-02     -0.2558   
    0.10000      -0.2132   
y
-----------------------------------------------
 ******  
 *sample netlist for bsim-mg

  ******  dc transfer curves tnom=  25.000 temp=  25.000 *****

   *** source        0:vgate =    0.6000        ***

x

        volt    param        param        param        param      
                    ids          gx           gx2          gx3    
   -0.10000    -1.894e-04   -9.957e-04   -9.240e-03    6.835e-03  
 -9.9000e-02   -1.877e-04     -0.2890      -1.9197      -8.5563   
 -9.8000e-02   -1.861e-04    1.651e-03   -287.9661    -1.910e+03  
 -9.7000e-02   -1.844e-04    1.656e-03    290.6128    -2.860e+05  
 -9.6000e-02   -1.828e-04    1.662e-03    5.271e-03    5.785e+05  
 -9.5000e-02   -1.811e-04    1.667e-03    5.301e-03   -2.906e+05  
 -9.4000e-02   -1.794e-04    1.672e-03    5.330e-03    2.947e-02  
 -9.3000e-02   -1.777e-04    1.678e-03    5.358e-03    2.878e-02  
 -9.2000e-02   -1.760e-04    1.683e-03    5.384e-03    2.785e-02  
 -9.1000e-02   -1.743e-04    1.688e-03    5.410e-03    2.689e-02  
 -9.0000e-02   -1.726e-04    1.694e-03    5.435e-03    2.602e-02  
 -8.9000e-02   -1.709e-04    1.699e-03    5.459e-03    2.494e-02  
 -8.8000e-02   -1.692e-04    1.705e-03    5.482e-03    2.379e-02  
 -8.7000e-02   -1.675e-04    1.710e-03    5.503e-03    2.271e-02  
 -8.6000e-02   -1.658e-04    1.716e-03    5.524e-03    2.146e-02  
 -8.5000e-02   -1.641e-04    1.722e-03    5.542e-03    2.022e-02  
 -8.4000e-02   -1.623e-04    1.727e-03    5.560e-03    1.882e-02  
 -8.3000e-02   -1.606e-04    1.733e-03    5.576e-03    1.747e-02  
 -8.2000e-02   -1.588e-04    1.738e-03    5.590e-03    1.596e-02  
 -8.1000e-02   -1.571e-04    1.744e-03    5.603e-03    1.450e-02  
 -8.0000e-02   -1.553e-04    1.750e-03    5.614e-03    1.282e-02  
 -7.9000e-02   -1.536e-04    1.755e-03    5.624e-03    1.125e-02  
 -7.8000e-02   -1.518e-04    1.761e-03    5.632e-03    9.450e-03  
 -7.7000e-02   -1.500e-04    1.766e-03    5.637e-03    7.773e-03  
 -7.6000e-02   -1.483e-04    1.772e-03    5.642e-03    5.798e-03  
 -7.5000e-02   -1.465e-04    1.778e-03    5.643e-03    4.079e-03  
 -7.4000e-02   -1.447e-04    1.783e-03    5.644e-03    1.961e-03  
 -7.3000e-02   -1.429e-04    1.789e-03    5.641e-03    1.563e-04  
 -7.2000e-02   -1.411e-04    1.795e-03    5.637e-03   -2.132e-03  
 -7.1000e-02   -1.393e-04    1.800e-03    5.631e-03   -4.050e-03  
 -7.0000e-02   -1.375e-04    1.806e-03    5.623e-03   -6.352e-03  
 -6.9000e-02   -1.357e-04    1.812e-03    5.612e-03   -8.413e-03  
 -6.8000e-02   -1.338e-04    1.817e-03    5.599e-03   -1.084e-02  
 -6.7000e-02   -1.320e-04    1.823e-03    5.583e-03   -1.293e-02  
 -6.6000e-02   -1.302e-04    1.828e-03    5.566e-03   -1.546e-02  
 -6.5000e-02   -1.283e-04    1.834e-03    5.546e-03   -1.765e-02  
 -6.4000e-02   -1.265e-04    1.839e-03    5.523e-03   -2.017e-02  
 -6.3000e-02   -1.246e-04    1.845e-03    5.498e-03   -2.255e-02  
 -6.2000e-02   -1.228e-04    1.850e-03    5.471e-03   -2.505e-02  
 -6.1000e-02   -1.209e-04    1.856e-03    5.441e-03   -2.746e-02  
 -6.0000e-02   -1.191e-04    1.861e-03    5.408e-03   -3.001e-02  
 -5.9000e-02   -1.172e-04    1.866e-03    5.373e-03   -3.247e-02  
 -5.8000e-02   -1.153e-04    1.872e-03    5.335e-03   -3.507e-02  
 -5.7000e-02   -1.134e-04    1.877e-03    5.295e-03   -3.755e-02  
 -5.6000e-02   -1.115e-04    1.882e-03    5.253e-03   -4.010e-02  
 -5.5000e-02   -1.096e-04    1.887e-03    5.208e-03   -4.261e-02  
 -5.4000e-02   -1.078e-04    1.892e-03    5.160e-03   -4.520e-02  
 -5.3000e-02   -1.058e-04    1.897e-03    5.110e-03   -4.766e-02  
 -5.2000e-02   -1.039e-04    1.902e-03    5.057e-03   -5.017e-02  
 -5.1000e-02   -1.020e-04    1.907e-03    5.002e-03   -5.272e-02  
 -5.0000e-02   -1.001e-04    1.912e-03    4.944e-03   -5.514e-02  
 -4.9000e-02   -9.819e-05    1.917e-03    4.884e-03   -5.760e-02  
 -4.8000e-02   -9.626e-05    1.922e-03    4.822e-03   -6.003e-02  
 -4.7000e-02   -9.433e-05    1.926e-03    4.757e-03   -6.242e-02  
 -4.6000e-02   -9.240e-05    1.931e-03    4.690e-03   -6.474e-02  
 -4.5000e-02   -9.046e-05    1.936e-03    4.621e-03   -6.706e-02  
 -4.4000e-02   -8.851e-05    1.940e-03    4.549e-03   -6.933e-02  
 -4.3000e-02   -8.656e-05    1.944e-03    4.475e-03   -7.155e-02  
 -4.2000e-02   -8.461e-05    1.949e-03    4.400e-03   -7.370e-02  
 -4.1000e-02   -8.265e-05    1.953e-03    4.322e-03   -7.579e-02  
 -4.0000e-02   -8.069e-05    1.957e-03    4.242e-03   -7.787e-02  
 -3.9000e-02   -7.873e-05    1.961e-03    4.160e-03   -7.984e-02  
 -3.8000e-02   -7.676e-05    1.965e-03    4.077e-03   -8.175e-02  
 -3.7000e-02   -7.478e-05    1.969e-03    3.991e-03   -8.364e-02  
 -3.6000e-02   -7.281e-05    1.973e-03    3.904e-03   -8.536e-02  
 -3.5000e-02   -7.083e-05    1.977e-03    3.815e-03   -8.713e-02  
 -3.4000e-02   -6.884e-05    1.980e-03    3.725e-03   -8.870e-02  
 -3.3000e-02   -6.686e-05    1.984e-03    3.633e-03   -9.031e-02  
 -3.2000e-02   -6.487e-05    1.987e-03    3.540e-03   -9.172e-02  
 -3.1000e-02   -6.287e-05    1.991e-03    3.446e-03   -9.319e-02  
 -3.0000e-02   -6.087e-05    1.994e-03    3.350e-03   -9.445e-02  
 -2.9000e-02   -5.887e-05    1.997e-03    3.253e-03   -9.568e-02  
 -2.8000e-02   -5.687e-05    2.000e-03    3.155e-03   -9.683e-02  
 -2.7000e-02   -5.487e-05    2.003e-03    3.057e-03   -9.786e-02  
 -2.6000e-02   -5.286e-05    2.006e-03    2.957e-03   -9.883e-02  
 -2.5000e-02   -5.084e-05    2.009e-03    2.856e-03   -9.973e-02  
 -2.4000e-02   -4.883e-05    2.011e-03    2.755e-03     -0.1005   
 -2.3000e-02   -4.681e-05    2.014e-03    2.653e-03     -0.1012   
 -2.2000e-02   -4.480e-05    2.016e-03    2.551e-03     -0.1018   
 -2.1000e-02   -4.277e-05    2.019e-03    2.448e-03     -0.1024   
 -2.0000e-02   -4.075e-05    2.021e-03    2.345e-03     -0.1028   
 -1.9000e-02   -3.873e-05    2.023e-03    2.241e-03     -0.1032   
 -1.8000e-02   -3.670e-05    2.025e-03    2.138e-03     -0.1035   
 -1.7000e-02   -3.467e-05    2.027e-03    2.034e-03     -0.1037   
 -1.6000e-02   -3.264e-05    2.029e-03    1.930e-03     -0.1038   
 -1.5000e-02   -3.061e-05    2.031e-03    1.826e-03     -0.1039   
 -1.4000e-02   -2.857e-05    2.032e-03    1.722e-03     -0.1039   
 -1.3000e-02   -2.654e-05    2.034e-03    1.619e-03     -0.1038   
 -1.2000e-02   -2.450e-05    2.035e-03    1.515e-03     -0.1037   
 -1.1000e-02   -2.246e-05    2.036e-03    1.412e-03     -0.1035   
 -1.0000e-02   -2.043e-05    2.038e-03    1.309e-03     -0.1033   
 -9.0000e-03   -1.839e-05    2.039e-03    1.206e-03     -0.1030   
 -8.0000e-03   -1.635e-05    2.040e-03    1.104e-03     -0.1027   
 -7.0000e-03   -1.430e-05    2.041e-03    1.001e-03     -0.1024   
 -6.0000e-03   -1.226e-05    2.041e-03    8.998e-04     -0.1020   
 -5.0000e-03   -1.022e-05    2.042e-03    7.985e-04     -0.1017   
 -4.0000e-03   -8.176e-06    2.043e-03    6.977e-04     -0.1013   
 -3.0000e-03   -6.132e-06    2.043e-03    5.971e-04     -0.1009   
 -2.0000e-03   -4.088e-06    2.044e-03    4.970e-04     -0.1005   
 -1.0000e-03   -2.044e-06    2.044e-03    3.971e-04     -0.1002   
    0.         -7.590e-14    2.044e-03    2.976e-04   -9.984e-02  
  1.0000e-03    2.044e-06    2.044e-03    1.982e-04   -9.956e-02  
  2.0000e-03    4.088e-06    2.044e-03    9.908e-05   -9.933e-02  
  3.0000e-03    6.132e-06    2.044e-03    3.360e-11   -9.916e-02  
  4.0000e-03    8.176e-06    2.044e-03   -9.908e-05   -9.908e-02  
  5.0000e-03    1.022e-05    2.044e-03   -1.982e-04   -9.908e-02  
  6.0000e-03    1.226e-05    2.043e-03   -2.976e-04   -9.917e-02  
  7.0000e-03    1.430e-05    2.043e-03   -3.971e-04   -9.933e-02  
  8.0000e-03    1.635e-05    2.042e-03   -4.970e-04   -9.956e-02  
  9.0000e-03    1.839e-05    2.041e-03   -5.971e-04   -9.984e-02  
  1.0000e-02    2.043e-05    2.041e-03   -6.977e-04     -0.1002   
  1.1000e-02    2.246e-05    2.040e-03   -7.985e-04     -0.1005   
  1.2000e-02    2.450e-05    2.039e-03   -8.998e-04     -0.1009   
  1.3000e-02    2.654e-05    2.038e-03   -1.001e-03     -0.1013   
  1.4000e-02    2.857e-05    2.036e-03   -1.104e-03     -0.1017   
  1.5000e-02    3.061e-05    2.035e-03   -1.206e-03     -0.1020   
  1.6000e-02    3.264e-05    2.034e-03   -1.309e-03     -0.1024   
  1.7000e-02    3.467e-05    2.032e-03   -1.412e-03     -0.1027   
  1.8000e-02    3.670e-05    2.031e-03   -1.515e-03     -0.1030   
  1.9000e-02    3.873e-05    2.029e-03   -1.619e-03     -0.1033   
  2.0000e-02    4.075e-05    2.027e-03   -1.722e-03     -0.1035   
  2.1000e-02    4.277e-05    2.025e-03   -1.826e-03     -0.1037   
  2.2000e-02    4.480e-05    2.023e-03   -1.930e-03     -0.1038   
  2.3000e-02    4.681e-05    2.021e-03   -2.034e-03     -0.1039   
  2.4000e-02    4.883e-05    2.019e-03   -2.138e-03     -0.1039   
  2.5000e-02    5.084e-05    2.016e-03   -2.241e-03     -0.1038   
  2.6000e-02    5.286e-05    2.014e-03   -2.345e-03     -0.1037   
  2.7000e-02    5.487e-05    2.011e-03   -2.448e-03     -0.1035   
  2.8000e-02    5.687e-05    2.009e-03   -2.551e-03     -0.1032   
  2.9000e-02    5.887e-05    2.006e-03   -2.653e-03     -0.1028   
  3.0000e-02    6.087e-05    2.003e-03   -2.755e-03     -0.1024   
  3.1000e-02    6.287e-05    2.000e-03   -2.856e-03     -0.1018   
  3.2000e-02    6.487e-05    1.997e-03   -2.957e-03     -0.1012   
  3.3000e-02    6.686e-05    1.994e-03   -3.056e-03     -0.1005   
  3.4000e-02    6.884e-05    1.991e-03   -3.155e-03   -9.971e-02  
  3.5000e-02    7.083e-05    1.987e-03   -3.253e-03   -9.883e-02  
  3.6000e-02    7.281e-05    1.984e-03   -3.350e-03   -9.788e-02  
  3.7000e-02    7.478e-05    1.980e-03   -3.446e-03   -9.682e-02  
  3.8000e-02    7.676e-05    1.977e-03   -3.540e-03   -9.567e-02  
  3.9000e-02    7.873e-05    1.973e-03   -3.633e-03   -9.447e-02  
  4.0000e-02    8.069e-05    1.969e-03   -3.725e-03   -9.315e-02  
  4.1000e-02    8.265e-05    1.965e-03   -3.815e-03   -9.177e-02  
  4.2000e-02    8.461e-05    1.961e-03   -3.904e-03   -9.027e-02  
  4.3000e-02    8.656e-05    1.957e-03   -3.991e-03   -8.875e-02  
  4.4000e-02    8.851e-05    1.953e-03   -4.077e-03   -8.706e-02  
  4.5000e-02    9.046e-05    1.949e-03   -4.160e-03   -8.541e-02  
  4.6000e-02    9.240e-05    1.944e-03   -4.242e-03   -8.363e-02  
  4.7000e-02    9.433e-05    1.940e-03   -4.322e-03   -8.171e-02  
  4.8000e-02    9.626e-05    1.936e-03   -4.400e-03   -7.987e-02  
  4.9000e-02    9.819e-05    1.931e-03   -4.475e-03   -7.786e-02  
  5.0000e-02    1.001e-04    1.926e-03   -4.549e-03   -7.578e-02  
  5.1000e-02    1.020e-04    1.922e-03   -4.621e-03   -7.373e-02  
  5.2000e-02    1.039e-04    1.917e-03   -4.690e-03   -7.152e-02  
  5.3000e-02    1.058e-04    1.912e-03   -4.757e-03   -6.934e-02  
  5.4000e-02    1.078e-04    1.907e-03   -4.822e-03   -6.706e-02  
  5.5000e-02    1.096e-04    1.902e-03   -4.884e-03   -6.474e-02  
  5.6000e-02    1.115e-04    1.897e-03   -4.944e-03   -6.240e-02  
  5.7000e-02    1.134e-04    1.892e-03   -5.002e-03   -6.005e-02  
  5.8000e-02    1.153e-04    1.887e-03   -5.057e-03   -5.759e-02  
  5.9000e-02    1.172e-04    1.882e-03   -5.110e-03   -5.517e-02  
  6.0000e-02    1.191e-04    1.877e-03   -5.160e-03   -5.268e-02  
  6.1000e-02    1.209e-04    1.872e-03   -5.208e-03   -5.019e-02  
  6.2000e-02    1.228e-04    1.866e-03   -5.253e-03   -4.768e-02  
  6.3000e-02    1.246e-04    1.861e-03   -5.295e-03   -4.515e-02  
  6.4000e-02    1.265e-04    1.856e-03   -5.335e-03   -4.265e-02  
  6.5000e-02    1.283e-04    1.850e-03   -5.373e-03   -4.010e-02  
  6.6000e-02    1.302e-04    1.845e-03   -5.408e-03   -3.753e-02  
  6.7000e-02    1.320e-04    1.839e-03   -5.441e-03   -3.508e-02  
  6.8000e-02    1.338e-04    1.834e-03   -5.471e-03   -3.242e-02  
  6.9000e-02    1.357e-04    1.828e-03   -5.498e-03   -3.008e-02  
  7.0000e-02    1.375e-04    1.823e-03   -5.523e-03   -2.747e-02  
  7.1000e-02    1.393e-04    1.817e-03   -5.546e-03   -2.494e-02  
  7.2000e-02    1.411e-04    1.812e-03   -5.566e-03   -2.265e-02  
  7.3000e-02    1.429e-04    1.806e-03   -5.583e-03   -2.014e-02  
  7.4000e-02    1.447e-04    1.800e-03   -5.599e-03   -1.766e-02  
  7.5000e-02    1.465e-04    1.795e-03   -5.612e-03   -1.540e-02  
  7.6000e-02    1.483e-04    1.789e-03   -5.623e-03   -1.302e-02  
  7.7000e-02    1.500e-04    1.783e-03   -5.631e-03   -1.077e-02  
  7.8000e-02    1.518e-04    1.778e-03   -5.637e-03   -8.498e-03  
  7.9000e-02    1.536e-04    1.772e-03   -5.642e-03   -6.239e-03  
  8.0000e-02    1.553e-04    1.766e-03   -5.644e-03   -4.150e-03  
  8.1000e-02    1.571e-04    1.761e-03   -5.643e-03   -2.032e-03  
  8.2000e-02    1.588e-04    1.755e-03   -5.641e-03    7.105e-05  
  8.3000e-02    1.606e-04    1.750e-03   -5.637e-03    2.004e-03  
  8.4000e-02    1.623e-04    1.744e-03   -5.632e-03    4.050e-03  
  8.5000e-02    1.641e-04    1.738e-03   -5.624e-03    5.826e-03  
  8.6000e-02    1.658e-04    1.733e-03   -5.614e-03    7.716e-03  
  8.7000e-02    1.675e-04    1.727e-03   -5.603e-03    9.507e-03  
  8.8000e-02    1.692e-04    1.722e-03   -5.590e-03    1.127e-02  
  8.9000e-02    1.709e-04    1.716e-03   -5.576e-03    1.280e-02  
  9.0000e-02    1.726e-04    1.710e-03   -5.560e-03    1.442e-02  
  9.1000e-02    1.743e-04    1.705e-03   -5.542e-03    1.606e-02  
  9.2000e-02    1.760e-04    1.699e-03   -5.524e-03    1.739e-02  
  9.3000e-02    1.777e-04    1.694e-03   -5.503e-03    1.887e-02  
  9.4000e-02    1.794e-04    1.688e-03   -5.482e-03    2.018e-02  
  9.5000e-02    1.811e-04    1.683e-03   -5.459e-03    2.147e-02  
  9.6000e-02    1.828e-04    1.678e-03   -5.435e-03    2.267e-02  
  9.7000e-02    1.844e-04    1.672e-03   -5.410e-03    2.390e-02  
  9.8000e-02    1.861e-04    1.667e-03   -5.384e-03    2.485e-02  
  9.9000e-02    1.877e-04    1.662e-03   -5.358e-03    2.601e-02  
    0.10000     1.894e-04    1.656e-03   -5.330e-03    2.693e-02  
y
x

        volt    param      
                    gx4    
   -0.10000      -0.3146   
 -9.9000e-02    -24.6277   
 -9.8000e-02   -8.563e+03  
 -9.7000e-02   -1.901e+06  
 -9.6000e-02   -2.841e+08  
 -9.5000e-02    8.646e+08  
 -9.4000e-02   -8.691e+08  
 -9.3000e-02    2.906e+08  
 -9.2000e-02     -0.6963   
 -9.1000e-02     -0.9237   
 -9.0000e-02     -0.9663   
 -8.9000e-02     -0.8669   
 -8.8000e-02     -1.0800   
 -8.7000e-02     -1.1511   
 -8.6000e-02     -1.0800   
 -8.5000e-02     -1.2506   
 -8.4000e-02     -1.2363   
 -8.3000e-02     -1.4069   
 -8.2000e-02     -1.3500   
 -8.1000e-02     -1.5064   
 -8.0000e-02     -1.4637   
 -7.9000e-02     -1.6769   
 -7.8000e-02     -1.5632   
 -7.7000e-02     -1.8048   
 -7.6000e-02     -1.6769   
 -7.5000e-02     -1.9753   
 -7.4000e-02     -1.7195   
 -7.3000e-02     -2.1174   
 -7.2000e-02     -1.8048   
 -7.1000e-02     -2.2879   
 -7.0000e-02     -1.9185   
 -6.9000e-02     -2.3022   
 -6.8000e-02     -2.0606   
 -6.7000e-02     -2.4301   
 -6.6000e-02     -2.0890   
 -6.5000e-02     -2.5295   
 -6.4000e-02     -2.1885   
 -6.3000e-02     -2.5153   
 -6.2000e-02     -2.3874   
 -6.1000e-02     -2.5011   
 -6.0000e-02     -2.4016   
 -5.9000e-02     -2.5580   
 -5.8000e-02     -2.4585   
 -5.7000e-02     -2.6006   
 -5.6000e-02     -2.4727   
 -5.5000e-02     -2.5508   
 -5.4000e-02     -2.5153   
 -5.3000e-02     -2.5935   
 -5.2000e-02     -2.4585   
 -5.1000e-02     -2.5082   
 -5.0000e-02     -2.5508   
 -4.9000e-02     -2.4158   
 -4.8000e-02     -2.4656   
 -4.7000e-02     -2.4230   
 -4.6000e-02     -2.3945   
 -4.5000e-02     -2.3164   
 -4.4000e-02     -2.3235   
 -4.3000e-02     -2.2666   
 -4.2000e-02     -2.2240   
 -4.1000e-02     -2.1458   
 -4.0000e-02     -2.0890   
 -3.9000e-02     -2.0819   
 -3.8000e-02     -1.9682   
 -3.7000e-02     -1.9114   
 -3.6000e-02     -1.8900   
 -3.5000e-02     -1.7195   
 -3.4000e-02     -1.7693   
 -3.3000e-02     -1.5774   
 -3.2000e-02     -1.6058   
 -3.1000e-02     -1.4069   
 -3.0000e-02     -1.4708   
 -2.9000e-02     -1.2577   
 -2.8000e-02     -1.2328   
 -2.7000e-02     -1.1511   
 -2.6000e-02     -1.0338   
 -2.5000e-02     -0.9663   
 -2.4000e-02     -0.8988   
 -2.3000e-02     -0.7745   
 -2.2000e-02     -0.7070   
 -2.1000e-02     -0.6253   
 -2.0000e-02     -0.5258   
 -1.9000e-02     -0.4725   
 -1.8000e-02     -0.3340   
 -1.7000e-02     -0.3268   
 -1.6000e-02     -0.1812   
 -1.5000e-02     -0.1741   
 -1.4000e-02   -2.487e-02  
 -1.3000e-02   -4.263e-02  
 -1.2000e-02    9.592e-02  
 -1.1000e-02    9.237e-02  
 -1.0000e-02      0.2167   
 -9.0000e-03      0.1883   
 -8.0000e-03      0.2913   
 -7.0000e-03      0.2984   
 -6.0000e-03      0.3375   
 -5.0000e-03      0.3659   
 -4.0000e-03      0.3686   
 -3.0000e-03      0.3890   
 -2.0000e-03      0.3837   
 -1.0000e-03      0.3686   
    0.            0.3566   
  1.0000e-03      0.3229   
  2.0000e-03      0.2800   
  3.0000e-03      0.2316   
  4.0000e-03      0.1648   
  5.0000e-03    8.722e-02  
  6.0000e-03    2.323e-04  
  7.0000e-03   -8.808e-02  
  8.0000e-03     -0.1643   
  9.0000e-03     -0.2297   
  1.0000e-02     -0.2849   
  1.1000e-02     -0.3180   
  1.2000e-02     -0.3566   
  1.3000e-02     -0.3739   
  1.4000e-02     -0.3775   
  1.5000e-02     -0.3926   
  1.6000e-02     -0.3677   
  1.7000e-02     -0.3659   
  1.8000e-02     -0.3357   
  1.9000e-02     -0.3073   
  2.0000e-02     -0.2665   
  2.1000e-02     -0.2345   
  2.2000e-02     -0.1616   
  2.3000e-02     -0.1403   
  2.4000e-02   -4.974e-02  
  2.5000e-02   -1.066e-02  
  2.6000e-02    7.461e-02  
  2.7000e-02      0.1457   
  2.8000e-02      0.1918   
  2.9000e-02      0.3126   
  3.0000e-02      0.3553   
  3.1000e-02      0.4619   
  3.2000e-02      0.5151   
  3.3000e-02      0.6501   
  3.4000e-02      0.6786   
  3.5000e-02      0.8029   
  3.6000e-02      0.8811   
  3.7000e-02      0.9557   
  3.8000e-02      1.0552   
  3.9000e-02      1.1546   
  4.0000e-02      1.2008   
  4.1000e-02      1.3216   
  4.2000e-02      1.3785   
  4.3000e-02      1.4992   
  4.4000e-02      1.5135   
  4.5000e-02      1.6911   
  4.6000e-02      1.6485   
  4.7000e-02      1.7835   
  4.8000e-02      1.9185   
  4.9000e-02      1.8474   
  5.0000e-02      2.0037   
  5.1000e-02      2.0819   
  5.2000e-02      2.0535   
  5.3000e-02      2.2098   
  5.4000e-02      2.1743   
  5.5000e-02      2.2808   
  5.6000e-02      2.3164   
  5.7000e-02      2.3448   
  5.8000e-02      2.3519   
  5.9000e-02      2.4585   
  6.0000e-02      2.4230   
  6.1000e-02      2.4869   
  6.2000e-02      2.4869   
  6.3000e-02      2.5082   
  6.4000e-02      2.5295   
  6.5000e-02      2.5082   
  6.6000e-02      2.5437   
  6.7000e-02      2.5722   
  6.8000e-02      2.4514   
  6.9000e-02      2.6574   
  7.0000e-02      2.3377   
  7.1000e-02      2.6148   
  7.2000e-02      2.5295   
  7.3000e-02      2.2879   
  7.4000e-02      2.5153   
  7.5000e-02      2.4727   
  7.6000e-02      2.2595   
  7.7000e-02      2.3874   
  7.8000e-02      2.2453   
  7.9000e-02      2.2737   
  8.0000e-02      2.2595   
  8.1000e-02      2.0890   
  8.2000e-02      2.1174   
  8.3000e-02      2.1032   
  8.4000e-02      1.9327   
  8.5000e-02      2.0464   
  8.6000e-02      1.7764   
  8.7000e-02      1.8900   
  8.8000e-02      1.7906   
[...]
 -8.2000e-02   -2.355e-04    2.713e-03    5.043e-03   -2.699e-02  
 -8.1000e-02   -2.327e-04    2.718e-03    5.014e-03   -2.774e-02  
 -8.0000e-02   -2.300e-04    2.723e-03    4.985e-03   -2.859e-02  
 -7.9000e-02   -2.273e-04    2.728e-03    4.955e-03   -2.936e-02  
 -7.8000e-02   -2.245e-04    2.733e-03    4.924e-03   -3.013e-02  
 -7.7000e-02   -2.218e-04    2.738e-03    4.892e-03   -3.104e-02  
 -7.6000e-02   -2.190e-04    2.743e-03    4.859e-03   -3.172e-02  
 -7.5000e-02   -2.163e-04    2.748e-03    4.826e-03   -3.261e-02  
 -7.4000e-02   -2.135e-04    2.752e-03    4.792e-03   -3.341e-02  
 -7.3000e-02   -2.108e-04    2.757e-03    4.757e-03   -3.421e-02  
 -7.2000e-02   -2.080e-04    2.762e-03    4.721e-03   -3.506e-02  
 -7.1000e-02   -2.052e-04    2.766e-03    4.684e-03   -3.583e-02  
 -7.0000e-02   -2.025e-04    2.771e-03    4.647e-03   -3.672e-02  
 -6.9000e-02   -1.997e-04    2.776e-03    4.608e-03   -3.749e-02  
 -6.8000e-02   -1.969e-04    2.780e-03    4.569e-03   -3.833e-02  
 -6.7000e-02   -1.941e-04    2.785e-03    4.529e-03   -3.915e-02  
 -6.6000e-02   -1.913e-04    2.789e-03    4.488e-03   -3.999e-02  
 -6.5000e-02   -1.885e-04    2.793e-03    4.447e-03   -4.083e-02  
 -6.4000e-02   -1.857e-04    2.798e-03    4.404e-03   -4.161e-02  
 -6.3000e-02   -1.829e-04    2.802e-03    4.361e-03   -4.250e-02  
 -6.2000e-02   -1.801e-04    2.806e-03    4.317e-03   -4.322e-02  
 -6.1000e-02   -1.773e-04    2.811e-03    4.272e-03   -4.420e-02  
 -6.0000e-02   -1.745e-04    2.815e-03    4.226e-03   -4.490e-02  
 -5.9000e-02   -1.716e-04    2.819e-03    4.179e-03   -4.579e-02  
 -5.8000e-02   -1.688e-04    2.823e-03    4.132e-03   -4.657e-02  
 -5.7000e-02   -1.660e-04    2.827e-03    4.084e-03   -4.739e-02  
 -5.6000e-02   -1.631e-04    2.831e-03    4.035e-03   -4.825e-02  
 -5.5000e-02   -1.603e-04    2.835e-03    3.985e-03   -4.901e-02  
 -5.4000e-02   -1.575e-04    2.839e-03    3.934e-03   -4.985e-02  
 -5.3000e-02   -1.546e-04    2.843e-03    3.883e-03   -5.067e-02  
 -5.2000e-02   -1.518e-04    2.846e-03    3.831e-03   -5.144e-02  
 -5.1000e-02   -1.489e-04    2.850e-03    3.777e-03   -5.227e-02  
 -5.0000e-02   -1.461e-04    2.854e-03    3.724e-03   -5.306e-02  
 -4.9000e-02   -1.432e-04    2.857e-03    3.669e-03   -5.383e-02  
 -4.8000e-02   -1.403e-04    2.861e-03    3.614e-03   -5.465e-02  
 -4.7000e-02   -1.375e-04    2.864e-03    3.557e-03   -5.539e-02  
 -4.6000e-02   -1.346e-04    2.868e-03    3.500e-03   -5.620e-02  
 -4.5000e-02   -1.317e-04    2.871e-03    3.443e-03   -5.694e-02  
 -4.4000e-02   -1.288e-04    2.875e-03    3.384e-03   -5.772e-02  
 -4.3000e-02   -1.260e-04    2.878e-03    3.325e-03   -5.850e-02  
 -4.2000e-02   -1.231e-04    2.881e-03    3.265e-03   -5.918e-02  
 -4.1000e-02   -1.202e-04    2.884e-03    3.204e-03   -5.996e-02  
 -4.0000e-02   -1.173e-04    2.887e-03    3.143e-03   -6.069e-02  
 -3.9000e-02   -1.144e-04    2.890e-03    3.081e-03   -6.142e-02  
 -3.8000e-02   -1.115e-04    2.893e-03    3.018e-03   -6.211e-02  
 -3.7000e-02   -1.086e-04    2.896e-03    2.955e-03   -6.283e-02  
 -3.6000e-02   -1.057e-04    2.899e-03    2.890e-03   -6.352e-02  
 -3.5000e-02   -1.028e-04    2.902e-03    2.825e-03   -6.420e-02  
 -3.4000e-02   -9.989e-05    2.904e-03    2.760e-03   -6.492e-02  
 -3.3000e-02   -9.698e-05    2.907e-03    2.694e-03   -6.550e-02  
 -3.2000e-02   -9.407e-05    2.910e-03    2.627e-03   -6.621e-02  
 -3.1000e-02   -9.115e-05    2.912e-03    2.559e-03   -6.685e-02  
 -3.0000e-02   -8.824e-05    2.915e-03    2.491e-03   -6.747e-02  
 -2.9000e-02   -8.532e-05    2.917e-03    2.423e-03   -6.807e-02  
 -2.8000e-02   -8.240e-05    2.919e-03    2.353e-03   -6.871e-02  
 -2.7000e-02   -7.947e-05    2.921e-03    2.283e-03   -6.929e-02  
 -2.6000e-02   -7.655e-05    2.924e-03    2.213e-03   -6.986e-02  
 -2.5000e-02   -7.362e-05    2.926e-03    2.142e-03   -7.043e-02  
 -2.4000e-02   -7.069e-05    2.928e-03    2.071e-03   -7.099e-02  
 -2.3000e-02   -6.776e-05    2.930e-03    1.998e-03   -7.150e-02  
 -2.2000e-02   -6.483e-05    2.931e-03    1.926e-03   -7.206e-02  
 -2.1000e-02   -6.189e-05    2.933e-03    1.853e-03   -7.255e-02  
 -2.0000e-02   -5.895e-05    2.935e-03    1.779e-03   -7.303e-02  
 -1.9000e-02   -5.602e-05    2.937e-03    1.705e-03   -7.352e-02  
 -1.8000e-02   -5.308e-05    2.938e-03    1.631e-03   -7.397e-02  
 -1.7000e-02   -5.014e-05    2.940e-03    1.556e-03   -7.442e-02  
 -1.6000e-02   -4.719e-05    2.941e-03    1.481e-03   -7.483e-02  
 -1.5000e-02   -4.425e-05    2.942e-03    1.405e-03   -7.526e-02  
 -1.4000e-02   -4.131e-05    2.944e-03    1.329e-03   -7.562e-02  
 -1.3000e-02   -3.836e-05    2.945e-03    1.253e-03   -7.600e-02  
 -1.2000e-02   -3.541e-05    2.946e-03    1.176e-03   -7.637e-02  
 -1.1000e-02   -3.247e-05    2.947e-03    1.099e-03   -7.668e-02  
 -1.0000e-02   -2.952e-05    2.948e-03    1.022e-03   -7.701e-02  
 -9.0000e-03   -2.657e-05    2.949e-03    9.444e-04   -7.729e-02  
 -8.0000e-03   -2.362e-05    2.949e-03    8.666e-04   -7.757e-02  
 -7.0000e-03   -2.067e-05    2.950e-03    7.885e-04   -7.782e-02  
 -6.0000e-03   -1.772e-05    2.951e-03    7.102e-04   -7.804e-02  
 -5.0000e-03   -1.476e-05    2.951e-03    6.318e-04   -7.827e-02  
 -4.0000e-03   -1.181e-05    2.952e-03    5.532e-04   -7.844e-02  
 -3.0000e-03   -8.859e-06    2.952e-03    4.744e-04   -7.862e-02  
 -2.0000e-03   -5.906e-06    2.953e-03    3.955e-04   -7.875e-02  
 -1.0000e-03   -2.953e-06    2.953e-03    3.166e-04   -7.889e-02  
    0.         -9.730e-13    2.953e-03    2.375e-04   -7.899e-02  
  1.0000e-03    2.953e-06    2.953e-03    1.584e-04   -7.907e-02  
  2.0000e-03    5.906e-06    2.953e-03    7.919e-05   -7.913e-02  
  3.0000e-03    8.859e-06    2.953e-03   -2.933e-10   -7.917e-02  
  4.0000e-03    1.181e-05    2.953e-03   -7.919e-05   -7.919e-02  
  5.0000e-03    1.476e-05    2.953e-03   -1.584e-04   -7.919e-02  
  6.0000e-03    1.772e-05    2.952e-03   -2.375e-04   -7.917e-02  
  7.0000e-03    2.067e-05    2.952e-03   -3.166e-04   -7.913e-02  
  8.0000e-03    2.362e-05    2.951e-03   -3.955e-04   -7.907e-02  
  9.0000e-03    2.657e-05    2.951e-03   -4.744e-04   -7.898e-02  
  1.0000e-02    2.952e-05    2.950e-03   -5.532e-04   -7.889e-02  
  1.1000e-02    3.247e-05    2.949e-03   -6.318e-04   -7.875e-02  
  1.2000e-02    3.541e-05    2.949e-03   -7.102e-04   -7.862e-02  
  1.3000e-02    3.836e-05    2.948e-03   -7.885e-04   -7.845e-02  
  1.4000e-02    4.131e-05    2.947e-03   -8.666e-04   -7.825e-02  
  1.5000e-02    4.425e-05    2.946e-03   -9.444e-04   -7.805e-02  
  1.6000e-02    4.719e-05    2.945e-03   -1.022e-03   -7.782e-02  
  1.7000e-02    5.014e-05    2.944e-03   -1.099e-03   -7.756e-02  
  1.8000e-02    5.308e-05    2.942e-03   -1.176e-03   -7.730e-02  
  1.9000e-02    5.602e-05    2.941e-03   -1.253e-03   -7.699e-02  
  2.0000e-02    5.895e-05    2.940e-03   -1.329e-03   -7.669e-02  
  2.1000e-02    6.189e-05    2.938e-03   -1.405e-03   -7.636e-02  
  2.2000e-02    6.483e-05    2.937e-03   -1.481e-03   -7.600e-02  
  2.3000e-02    6.776e-05    2.935e-03   -1.556e-03   -7.562e-02  
  2.4000e-02    7.069e-05    2.933e-03   -1.631e-03   -7.525e-02  
  2.5000e-02    7.362e-05    2.931e-03   -1.705e-03   -7.485e-02  
  2.6000e-02    7.655e-05    2.930e-03   -1.779e-03   -7.441e-02  
  2.7000e-02    7.947e-05    2.928e-03   -1.853e-03   -7.396e-02  
  2.8000e-02    8.240e-05    2.926e-03   -1.926e-03   -7.353e-02  
  2.9000e-02    8.532e-05    2.924e-03   -1.998e-03   -7.303e-02  
  3.0000e-02    8.824e-05    2.921e-03   -2.071e-03   -7.255e-02  
  3.1000e-02    9.115e-05    2.919e-03   -2.142e-03   -7.205e-02  
  3.2000e-02    9.407e-05    2.917e-03   -2.213e-03   -7.152e-02  
  3.3000e-02    9.698e-05    2.915e-03   -2.283e-03   -7.097e-02  
  3.4000e-02    9.989e-05    2.912e-03   -2.353e-03   -7.045e-02  
  3.5000e-02    1.028e-04    2.910e-03   -2.423e-03   -6.985e-02  
  3.6000e-02    1.057e-04    2.907e-03   -2.491e-03   -6.929e-02  
  3.7000e-02    1.086e-04    2.904e-03   -2.559e-03   -6.869e-02  
  3.8000e-02    1.115e-04    2.902e-03   -2.627e-03   -6.811e-02  
  3.9000e-02    1.144e-04    2.899e-03   -2.694e-03   -6.744e-02  
  4.0000e-02    1.173e-04    2.896e-03   -2.760e-03   -6.687e-02  
  4.1000e-02    1.202e-04    2.893e-03   -2.825e-03   -6.617e-02  
  4.2000e-02    1.231e-04    2.890e-03   -2.890e-03   -6.558e-02  
  4.3000e-02    1.260e-04    2.887e-03   -2.955e-03   -6.489e-02  
  4.4000e-02    1.288e-04    2.884e-03   -3.018e-03   -6.415e-02  
  4.5000e-02    1.317e-04    2.881e-03   -3.081e-03   -6.357e-02  
  4.6000e-02    1.346e-04    2.878e-03   -3.143e-03   -6.280e-02  
  4.7000e-02    1.375e-04    2.875e-03   -3.204e-03   -6.212e-02  
  4.8000e-02    1.403e-04    2.871e-03   -3.265e-03   -6.143e-02  
  4.9000e-02    1.432e-04    2.868e-03   -3.325e-03   -6.064e-02  
  5.0000e-02    1.461e-04    2.864e-03   -3.384e-03   -6.001e-02  
  5.1000e-02    1.489e-04    2.861e-03   -3.443e-03   -5.917e-02  
  5.2000e-02    1.518e-04    2.857e-03   -3.500e-03   -5.850e-02  
  5.3000e-02    1.546e-04    2.854e-03   -3.557e-03   -5.772e-02  
  5.4000e-02    1.575e-04    2.850e-03   -3.614e-03   -5.693e-02  
  5.5000e-02    1.603e-04    2.846e-03   -3.669e-03   -5.621e-02  
  5.6000e-02    1.631e-04    2.843e-03   -3.724e-03   -5.540e-02  
  5.7000e-02    1.660e-04    2.839e-03   -3.777e-03   -5.463e-02  
  5.8000e-02    1.688e-04    2.835e-03   -3.831e-03   -5.384e-02  
  5.9000e-02    1.716e-04    2.831e-03   -3.883e-03   -5.308e-02  
  6.0000e-02    1.745e-04    2.827e-03   -3.934e-03   -5.224e-02  
  6.1000e-02    1.773e-04    2.823e-03   -3.985e-03   -5.148e-02  
  6.2000e-02    1.801e-04    2.819e-03   -4.035e-03   -5.063e-02  
  6.3000e-02    1.829e-04    2.815e-03   -4.084e-03   -4.988e-02  
  6.4000e-02    1.857e-04    2.811e-03   -4.132e-03   -4.901e-02  
  6.5000e-02    1.885e-04    2.806e-03   -4.179e-03   -4.825e-02  
  6.6000e-02    1.913e-04    2.802e-03   -4.226e-03   -4.741e-02  
  6.7000e-02    1.941e-04    2.798e-03   -4.272e-03   -4.655e-02  
  6.8000e-02    1.969e-04    2.793e-03   -4.317e-03   -4.577e-02  
  6.9000e-02    1.997e-04    2.789e-03   -4.361e-03   -4.498e-02  
  7.0000e-02    2.025e-04    2.785e-03   -4.404e-03   -4.406e-02  
  7.1000e-02    2.052e-04    2.780e-03   -4.447e-03   -4.334e-02  
  7.2000e-02    2.080e-04    2.776e-03   -4.488e-03   -4.241e-02  
  7.3000e-02    2.108e-04    2.771e-03   -4.529e-03   -4.168e-02  
  7.4000e-02    2.135e-04    2.766e-03   -4.569e-03   -4.079e-02  
  7.5000e-02    2.163e-04    2.762e-03   -4.608e-03   -3.999e-02  
  7.6000e-02    2.190e-04    2.757e-03   -4.646e-03   -3.919e-02  
  7.7000e-02    2.218e-04    2.752e-03   -4.684e-03   -3.827e-02  
  7.8000e-02    2.245e-04    2.748e-03   -4.721e-03   -3.755e-02  
  7.9000e-02    2.273e-04    2.743e-03   -4.757e-03   -3.666e-02  
  8.0000e-02    2.300e-04    2.738e-03   -4.792e-03   -3.587e-02  
  8.1000e-02    2.327e-04    2.733e-03   -4.826e-03   -3.506e-02  
  8.2000e-02    2.355e-04    2.728e-03   -4.859e-03   -3.418e-02  
  8.3000e-02    2.382e-04    2.723e-03   -4.892e-03   -3.342e-02  
  8.4000e-02    2.409e-04    2.718e-03   -4.924e-03   -3.260e-02  
  8.5000e-02    2.436e-04    2.713e-03   -4.955e-03   -3.175e-02  
  8.6000e-02    2.463e-04    2.708e-03   -4.985e-03   -3.104e-02  
  8.7000e-02    2.490e-04    2.703e-03   -5.014e-03   -3.008e-02  
  8.8000e-02    2.517e-04    2.698e-03   -5.043e-03   -2.942e-02  
  8.9000e-02    2.544e-04    2.693e-03   -5.070e-03   -2.854e-02  
  9.0000e-02    2.571e-04    2.688e-03   -5.097e-03   -2.778e-02  
  9.1000e-02    2.597e-04    2.683e-03   -5.124e-03   -2.699e-02  
  9.2000e-02    2.624e-04    2.678e-03   -5.149e-03   -2.619e-02  
  9.3000e-02    2.651e-04    2.672e-03   -5.174e-03   -2.538e-02  
  9.4000e-02    2.677e-04    2.667e-03   -5.198e-03   -2.466e-02  
  9.5000e-02    2.704e-04    2.662e-03   -5.221e-03   -2.387e-02  
  9.6000e-02    2.730e-04    2.657e-03   -5.243e-03   -2.308e-02  
  9.7000e-02    2.757e-04    2.651e-03   -5.264e-03   -2.230e-02  
  9.8000e-02    2.783e-04    2.646e-03   -5.285e-03   -2.161e-02  
  9.9000e-02    2.810e-04    2.641e-03   -5.305e-03   -2.079e-02  
    0.10000     2.836e-04    2.635e-03   -5.325e-03   -2.007e-02  
y
x

        volt    param      
                    gx4    
   -0.10000     7.532e-02  
 -9.9000e-02     68.0033   
 -9.8000e-02   -1.639e+04  
 -9.7000e-02   -4.676e+06  
 -9.6000e-02   -5.193e+08  
 -9.5000e-02    1.586e+09  
 -9.4000e-02   -1.596e+09  
 -9.3000e-02    5.338e+08  
 -9.2000e-02     -0.6679   
 -9.1000e-02     -0.7674   
 -9.0000e-02     -0.7816   
 -8.9000e-02     -0.7390   
 -8.8000e-02     -0.6963   
 -8.7000e-02     -0.8100   
 -8.6000e-02     -0.7532   
 -8.5000e-02     -0.7816   
 -8.4000e-02     -0.7390   
 -8.3000e-02     -0.7958   
 -8.2000e-02     -0.7958   
 -8.1000e-02     -0.7816   
 -8.0000e-02     -0.7532   
 -7.9000e-02     -0.8527   
 -7.8000e-02     -0.7674   
 -7.7000e-02     -0.7674   
 -7.6000e-02     -0.9095   
 -7.5000e-02     -0.6821   
 -7.4000e-02     -0.8953   
 -7.3000e-02     -0.7958   
 -7.2000e-02     -0.7958   
 -7.1000e-02     -0.8527   
 -7.0000e-02     -0.7674   
 -6.9000e-02     -0.8953   
 -6.8000e-02     -0.7674   
 -6.7000e-02     -0.8384   
 -6.6000e-02     -0.8242   
 -6.5000e-02     -0.8384   
 -6.4000e-02     -0.8384   
 -6.3000e-02     -0.7816   
 -6.2000e-02     -0.8953   
 -6.1000e-02     -0.7105   
 -6.0000e-02     -0.9805   
 -5.9000e-02     -0.7034   
 -5.8000e-02     -0.8882   
 -5.7000e-02     -0.7816   
 -5.6000e-02     -0.8242   
 -5.5000e-02     -0.8598   
 -5.4000e-02     -0.7603   
 -5.3000e-02     -0.8384   
 -5.2000e-02     -0.8171   
 -5.1000e-02     -0.7745   
 -5.0000e-02     -0.8242   
 -4.9000e-02     -0.7887   
 -4.8000e-02     -0.7745   
 -4.7000e-02     -0.8242   
 -4.6000e-02     -0.7390   
 -4.5000e-02     -0.8029   
 -4.4000e-02     -0.7390   
 -4.3000e-02     -0.7816   
 -4.2000e-02     -0.7816   
 -4.1000e-02     -0.6821   
 -4.0000e-02     -0.7816   
 -3.9000e-02     -0.7248   
 -3.8000e-02     -0.7319   
 -3.7000e-02     -0.6892   
 -3.6000e-02     -0.7248   
 -3.5000e-02     -0.6821   
 -3.4000e-02     -0.6892   
 -3.3000e-02     -0.7105   
 -3.2000e-02     -0.5898   
 -3.1000e-02     -0.7034   
 -3.0000e-02     -0.6466   
 -2.9000e-02     -0.6111   
 -2.8000e-02     -0.6075   
 -2.7000e-02     -0.6324   
 -2.6000e-02     -0.5826   
 -2.5000e-02     -0.5720   
 -2.4000e-02     -0.5720   
 -2.3000e-02     -0.5542   
 -2.2000e-02     -0.5151   
 -2.1000e-02     -0.5542   
 -2.0000e-02     -0.4903   
 -1.9000e-02     -0.4832   
 -1.8000e-02     -0.4938   
 -1.7000e-02     -0.4476   
 -1.6000e-02     -0.4441   
 -1.5000e-02     -0.4157   
 -1.4000e-02     -0.4334   
 -1.3000e-02     -0.3553   
 -1.2000e-02     -0.3819   
 -1.1000e-02     -0.3730   
 -1.0000e-02     -0.3020   
 -9.0000e-03     -0.3286   
 -8.0000e-03     -0.2895   
 -7.0000e-03     -0.2718   
 -6.0000e-03     -0.2522   
 -5.0000e-03     -0.2220   
 -4.0000e-03     -0.2309   
 -3.0000e-03     -0.1661   
 -2.0000e-03     -0.1821   
 -1.0000e-03     -0.1350   
    0.           -0.1323   
  1.0000e-03   -9.859e-02  
  2.0000e-03   -8.193e-02  
  3.0000e-03   -6.317e-02  
  4.0000e-03   -3.682e-02  
  5.0000e-03   -2.224e-02  
  6.0000e-03    1.546e-03  
  7.0000e-03    1.862e-02  
  8.0000e-03    4.000e-02  
  9.0000e-03    6.206e-02  
  1.0000e-02    8.327e-02  
  1.1000e-02    9.326e-02  
  1.2000e-02      0.1417   
  1.3000e-02      0.1279   
  1.4000e-02      0.1741   
  1.5000e-02      0.1936   
  1.6000e-02      0.2043   
  1.7000e-02      0.2274   
  1.8000e-02      0.2629   
  1.9000e-02      0.2558   
  2.0000e-02      0.3126   
  2.1000e-02      0.2967   
  2.2000e-02      0.3322   
  2.3000e-02      0.3570   
  2.4000e-02      0.3819   
  2.5000e-02      0.3695   
  2.6000e-02      0.4086   
  2.7000e-02      0.4370   
  2.8000e-02      0.4441   
  2.9000e-02      0.4299   
  3.0000e-02      0.5080   
  3.1000e-02      0.4761   
  3.2000e-02      0.5045   
  3.3000e-02      0.5294   
  3.4000e-02      0.5436   
  3.5000e-02      0.5222   
  3.6000e-02      0.6040   
  3.7000e-02      0.5542   
  3.8000e-02      0.6040   
  3.9000e-02      0.5755   
  4.0000e-02      0.6750   
  4.1000e-02      0.5684   
  4.2000e-02      0.7034   
  4.3000e-02      0.5898   
  4.4000e-02      0.6821   
  4.5000e-02      0.7390   
  4.6000e-02      0.5826   
  4.7000e-02      0.7674   
  4.8000e-02      0.6892   
  4.9000e-02      0.6821   
  5.0000e-02      0.7887   
  5.1000e-02      0.6395   
  5.2000e-02      0.8384   
  5.3000e-02      0.6679   
  5.4000e-02      0.7816   
  5.5000e-02      0.7887   
  5.6000e-02      0.7176   
  5.7000e-02      0.8100   
  5.8000e-02      0.7745   
  5.9000e-02      0.7887   
  6.0000e-02      0.7603   
  6.1000e-02      0.8384   
  6.2000e-02      0.7603   
  6.3000e-02      0.8527   
  6.4000e-02      0.7461   
  6.5000e-02      0.8740   
  6.6000e-02      0.7603   
  6.7000e-02      0.8313   
  6.8000e-02      0.8669   
  6.9000e-02      0.7745   
  7.0000e-02      0.7887   
  7.1000e-02      0.9237   
  7.2000e-02      0.7176   
  7.3000e-02      0.9379   
  7.4000e-02      0.7248   
  7.5000e-02      0.8953   
  7.6000e-02      0.7958   
  7.7000e-02      0.7958   
  7.8000e-02      0.9237   
  7.9000e-02      0.7248   
  8.0000e-02      0.8811   
  8.1000e-02      0.7958   
  8.2000e-02      0.8100   
  8.3000e-02      0.8811   
  8.4000e-02      0.7532   
  8.5000e-02      0.8242   
  8.6000e-02      0.8527   
  8.7000e-02      0.7105   
  8.8000e-02      0.9521   
  8.9000e-02      0.6679   
  9.0000e-02      0.8811   
  9.1000e-02      0.7532   
  9.2000e-02      0.7958   
  9.3000e-02      0.7958   
  9.4000e-02      0.8100   
  9.5000e-02      0.7248   
  9.6000e-02      0.7816   
  9.7000e-02      0.7958   
  9.8000e-02      0.7816   
  9.9000e-02      0.6821   
    0.10000       0.8242   
y
-----------------------------------------------

          ***** job concluded
1****** HSPICE -- G-2012.06 32-BIT (May 27 2012) RHEL32 ******                  
 ******  
 *sample netlist for bsim-mg

  ******  job statistics summary tnom=  25.000 temp=  25.000 *****
  
  
 ******  Machine Information  ******
 CPU:
 model name	: Intel(R) Xeon(R) CPU           X7350  @ 2.93GHz
 cpu MHz	: 2925.869
  
 OS:
 Linux version 2.6.18-348.4.1.el5 (mockbuild@x86-007.build.bos.redhat.com) (gcc version 4.1.2 20080704 (Red Hat 4.1.2-54)) #1 SMP Fri Mar 22 05:41:51 EDT 2013


  ******  HSPICE Threads Information  ******

  Command Line Threads Count :     1
  Available CPU Count        :     8
  Actual Threads Count       :     1


  ******  Circuit Statistics  ******
  # nodes       =       7 # elements   =       5
  # resistors   =       0 # capacitors =       0 # inductors   =       0
  # mutual_inds =       0 # vccs       =       0 # vcvs        =       1
  # cccs        =       0 # ccvs       =       0 # volt_srcs   =       3
  # curr_srcs   =       0 # diodes     =       0 # bjts        =       0
  # jfets       =       0 # mosfets    =       0 # U elements  =       0
  # T elements  =       0 # W elements =       0 # B elements  =       0
  # S elements  =       0 # P elements =       0 # va device   =       1
  # vector_srcs =       0 # N elements =       0


  ******  Runtime Statistics (seconds)  ******

  analysis           time    # points   tot. iter  conv.iter
  op point           0.00           1           0
  dc sweep           0.14        1206        2419
  readin             3.46
  errchk             0.05
  setup              0.00
  output             0.01


           peak memory used        117.16 megabytes
           total cpu time            3.66 seconds
           total elapsed time       14.32 seconds
           job started at     15:14:20 07/12/2013
           job ended   at     15:14:34 07/12/2013


 lic: Release hspice token(s) 
 lic: total license checkout elapse time:        0.21(s)
