 ****** HSPICE -- G-2012.06 32-BIT (May 27 2012) RHEL32 ******                  
  Copyright (C) 2012 Synopsys, Inc. All Rights Reserved.                        
  Unpublished-rights reserved under US copyright laws.
  This program is protected by law and is subject to the
  terms and conditions of the license agreement from Synopsys.
  Use of this program is your acceptance to be bound by the
  license agreement. HSPICE is the trademark of Synopsys, Inc.
  Input File: gummel_p.sp                                                       
  Command line options: -hdlpath ../code -i gummel_p.sp -o gummel_p
 lic:  
 lic: FLEXlm: v10.8 
 lic: USER:   navidp               HOSTNAME: intelr900-1.EECS.Berkeley.EDU 
 lic: HOSTID: 0022197fa591         PID:      25112 
 lic: Using FLEXlm license file: 
 lic: 1701@sunv40z-1.eecs.berkeley.edu 
 lic: Checkout 1 hspice 
 lic: License/Maintenance for hspice will expire on 19-dec-2013/2013.03 
 lic: 3(in_use)/50(total) FLOATING license(s) on SERVER sunv40z-1.eecs.berkeley.
 lic:   
 Init: read install configuration file: /tools/synopsys/hspice/G-2012.06/hspice/meta.cfg
 **info** *pvaI* Module (bsimcmg): 4 unexpanded port, 0 init, 2075 behav, 47 contrib, 63/3242 expr(s)

 **info** *pvaI* Resizing DB size for v count = 1

 **info** *pvaI* Resizing DB size for v count = 2

 **info** *pvaI*        Has DIS (ST SB), 4 afCount

 **info** *pvaI*        0 const-G and 0 const-C, Has switch branch.

 **info** *pvaI* Module (bsimcmg): generated 0 flow node(s) during compilation.

 **info** *pvaI* #### Total 697 line-size(s), 63 expr(s), 47 contr(s), 0 init(s), 2075 behav(s), 4 port(s)

 Loading pVA library gummel_p.pvadir/pvaRTL_linux.so...
1****** HSPICE -- G-2012.06 32-BIT (May 27 2012) RHEL32 ******                  
 ******  
 *sample netlist for bsim-mg

  ******  circuit name directory
 circuit number to circuit name directory
   number circuitname                     definition         multiplier
        0 main circuit
        1 x1.                             bsimcmg(va)        1.00 
 **info** *pvaI* Creating Verilog-A module 'bsimcmg' for X1

  
      
 *****************************************************************
 ******  option summary
 ******
 runlvl  = 3         bypass  = 2         
  Opening plot unit= 15
 file=gummel_p.pa0                                                             

 ******  
 *sample netlist for bsim-mg

  ******  dc transfer curves tnom=  25.000 temp=  25.000 *****

   *** source        0:vgate =    0.            ***

x

        volt    param        param        param        param      
                    ids          gx           gx2          gx3    
   -0.10000    -4.064e-10      0.           0.           0.       
 -9.9000e-02   -3.919e-10   -4.064e-07      0.           0.       
 -9.8000e-02   -3.779e-10    1.450e-08   -4.064e-04      0.       
 -9.7000e-02   -3.644e-10    1.403e-08    4.209e-04     -0.4064   
 -9.6000e-02   -3.514e-10    1.350e-08   -4.690e-07      0.8274   
 -9.5000e-02   -3.388e-10    1.302e-08   -5.258e-07     -0.4214   
 -9.4000e-02   -3.267e-10    1.256e-08   -4.832e-07   -5.684e-05  
 -9.3000e-02   -3.150e-10    1.214e-08   -4.547e-07    4.263e-05  
 -9.2000e-02   -3.037e-10    1.168e-08   -4.263e-07    2.842e-05  
 -9.1000e-02   -2.929e-10    1.130e-08   -4.547e-07    2.842e-05  
 -9.0000e-02   -2.824e-10    1.084e-08   -3.837e-07   -2.842e-05  
 -8.9000e-02   -2.723e-10    1.053e-08   -4.547e-07    7.105e-05  
 -8.8000e-02   -2.625e-10    1.009e-08   -3.126e-07   -7.105e-05  
 -8.7000e-02   -2.531e-10    9.777e-09   -4.405e-07    1.421e-04  
 -8.6000e-02   -2.440e-10    9.393e-09   -3.126e-07   -1.279e-04  
 -8.5000e-02   -2.352e-10    9.095e-09   -3.837e-07    1.279e-04  
 -8.4000e-02   -2.268e-10    8.754e-09   -2.984e-07   -7.105e-05  
 -8.3000e-02   -2.186e-10    8.441e-09   -3.411e-07    8.527e-05  
 -8.2000e-02   -2.108e-10    8.157e-09   -3.126e-07   -4.263e-05  
 -8.1000e-02   -2.032e-10    7.844e-09   -2.842e-07    2.842e-05  
 -8.0000e-02   -1.959e-10    7.589e-09   -3.126e-07    2.842e-05  
 -7.9000e-02   -1.888e-10    7.319e-09   -2.558e-07   -2.842e-05  
 -7.8000e-02   -1.821e-10    7.049e-09   -2.700e-07    5.684e-05  
 -7.7000e-02   -1.755e-10    6.793e-09   -2.700e-07   -1.421e-05  
 -7.6000e-02   -1.692e-10    6.551e-09   -2.558e-07    1.022e-16  
 -7.5000e-02   -1.631e-10    6.352e-09   -2.416e-07    1.421e-05  
 -7.4000e-02   -1.572e-10    6.082e-09   -1.990e-07    1.421e-05  
 -7.3000e-02   -1.515e-10    5.883e-09   -2.700e-07    4.263e-05  
 -7.2000e-02   -1.460e-10    5.699e-09   -1.990e-07   -7.105e-05  
 -7.1000e-02   -1.407e-10    5.443e-09   -1.847e-07    7.105e-05  
 -7.0000e-02   -1.356e-10    5.315e-09   -2.558e-07    1.421e-05  
 -6.9000e-02   -1.307e-10    5.087e-09   -1.279e-07   -7.105e-05  
 -6.8000e-02   -1.260e-10    4.903e-09   -2.274e-07    1.279e-04  
 -6.7000e-02   -1.214e-10    4.732e-09   -1.847e-07   -9.948e-05  
 -6.6000e-02   -1.170e-10    4.576e-09   -1.705e-07    4.263e-05  
 -6.5000e-02   -1.128e-10    4.405e-09   -1.563e-07    1.421e-05  
 -6.4000e-02   -1.087e-10    4.263e-09   -1.705e-07    1.421e-05  
 -6.3000e-02   -1.047e-10    4.100e-09   -1.421e-07   -1.421e-05  
 -6.2000e-02   -1.009e-10    3.965e-09   -1.634e-07    2.842e-05  
 -6.1000e-02   -9.720e-11    3.816e-09   -1.350e-07   -2.132e-05  
 -6.0000e-02   -9.366e-11    3.681e-09   -1.492e-07    2.842e-05  
 -5.9000e-02   -9.022e-11    3.546e-09   -1.350e-07   -1.421e-05  
 -5.8000e-02   -8.693e-11    3.432e-09   -1.350e-07    1.421e-05  
 -5.7000e-02   -8.372e-11    3.297e-09   -1.137e-07      0.       
 -5.6000e-02   -8.065e-11    3.205e-09   -1.350e-07    2.132e-05  
 -5.5000e-02   -7.768e-11    3.077e-09   -9.237e-08   -2.132e-05  
 -5.4000e-02   -7.480e-11    2.963e-09   -1.279e-07    4.263e-05  
 -5.3000e-02   -7.205e-11    2.885e-09   -1.137e-07   -3.553e-05  
 -5.2000e-02   -6.937e-11    2.750e-09   -7.816e-08    1.421e-05  
 -5.1000e-02   -6.680e-11    2.679e-09   -1.350e-07    3.553e-05  
 -5.0000e-02   -6.430e-11    2.572e-09   -7.105e-08   -5.684e-05  
 -4.9000e-02   -6.192e-11    2.494e-09   -1.066e-07    6.395e-05  
 -4.8000e-02   -5.959e-11    2.387e-09   -7.816e-08   -3.553e-05  
 -4.7000e-02   -5.735e-11    2.331e-09   -1.066e-07    2.842e-05  
 -4.6000e-02   -5.519e-11    2.238e-09   -5.684e-08   -2.842e-05  
 -4.5000e-02   -5.310e-11    2.160e-09   -9.237e-08    4.974e-05  
 -4.4000e-02   -5.109e-11    2.089e-09   -7.816e-08   -3.553e-05  
 -4.3000e-02   -4.913e-11    2.011e-09   -7.105e-08    1.421e-05  
 -4.2000e-02   -4.725e-11    1.954e-09   -7.816e-08    7.105e-06  
 -4.1000e-02   -4.542e-11    1.883e-09   -5.684e-08   -7.105e-06  
 -4.0000e-02   -4.366e-11    1.826e-09   -7.105e-08    2.132e-05  
 -3.9000e-02   -4.196e-11    1.762e-09   -5.684e-08   -1.421e-05  
 -3.8000e-02   -4.032e-11    1.698e-09   -6.395e-08    1.421e-05  
 -3.7000e-02   -3.872e-11    1.641e-09   -6.395e-08   -7.105e-06  
 -3.6000e-02   -3.718e-11    1.599e-09   -5.684e-08    1.282e-17  
 -3.5000e-02   -3.568e-11    1.542e-09   -4.263e-08    7.105e-06  
 -3.4000e-02   -3.423e-11    1.499e-09   -5.684e-08    1.421e-05  
 -3.3000e-02   -3.283e-11    1.450e-09   -4.263e-08   -1.421e-05  
 -3.2000e-02   -3.147e-11    1.400e-09   -4.974e-08    1.421e-05  
 -3.1000e-02   -3.015e-11    1.361e-09   -4.974e-08   -7.105e-06  
 -3.0000e-02   -2.887e-11    1.322e-09   -3.908e-08      0.       
 -2.9000e-02   -2.762e-11    1.279e-09   -3.908e-08    1.066e-05  
 -2.8000e-02   -2.641e-11    1.251e-09   -4.263e-08      0.       
 -2.7000e-02   -2.524e-11    1.208e-09   -2.842e-08   -3.553e-06  
 -2.6000e-02   -2.409e-11    1.172e-09   -4.263e-08    1.421e-05  
 -2.5000e-02   -2.297e-11    1.151e-09   -3.553e-08   -1.421e-05  
 -2.4000e-02   -2.188e-11    1.123e-09   -2.132e-08    7.105e-06  
 -2.3000e-02   -2.082e-11    1.091e-09   -2.842e-08    1.421e-05  
 -2.2000e-02   -1.977e-11    1.059e-09   -3.197e-08   -7.105e-06  
 -2.1000e-02   -1.875e-11    1.044e-09   -3.197e-08   -3.553e-06  
 -2.0000e-02   -1.775e-11    1.023e-09   -1.421e-08      0.       
 -1.9000e-02   -1.677e-11    1.002e-09   -2.132e-08    1.776e-05  
 -1.8000e-02   -1.581e-11    9.805e-10   -2.132e-08   -7.105e-06  
 -1.7000e-02   -1.486e-11    9.628e-10   -2.132e-08      0.       
 -1.6000e-02   -1.393e-11    9.486e-10   -1.776e-08      0.       
 -1.5000e-02   -1.300e-11    9.308e-10   -1.421e-08    3.553e-06  
 -1.4000e-02   -1.210e-11    9.219e-10   -1.776e-08    3.553e-06  
 -1.3000e-02   -1.120e-11    9.077e-10   -8.882e-09   -3.553e-06  
 -1.2000e-02   -1.031e-11    8.971e-10   -1.421e-08    8.882e-06  
 -1.1000e-02   -9.427e-12    8.900e-10   -1.066e-08   -5.329e-06  
 -1.0000e-02   -8.551e-12    8.828e-10   -7.105e-09    3.553e-06  
 -9.0000e-03   -7.685e-12    8.757e-10   -7.105e-09    3.553e-06  
 -8.0000e-03   -6.818e-12    8.669e-10   -7.105e-09    1.251e-17  
 -7.0000e-03   -5.957e-12    8.669e-10   -8.882e-09      0.       
 -6.0000e-03   -5.100e-12    8.606e-10      0.        -1.776e-06  
 -5.0000e-03   -4.245e-12    8.571e-10   -6.217e-09    8.882e-06  
 -4.0000e-03   -3.394e-12    8.544e-10   -3.553e-09   -6.217e-06  
 -3.0000e-03   -2.544e-12    8.513e-10   -2.665e-09    2.665e-06  
 -2.0000e-03   -1.694e-12    8.504e-10   -3.109e-09    8.882e-07  
 -1.0000e-03   -8.470e-13    8.493e-10   -8.882e-10   -4.441e-07  
    0.          1.880e-28    8.474e-10   -1.110e-09    2.220e-06  
  1.0000e-03    8.470e-13    8.470e-10   -1.887e-09   -2.220e-07  
  2.0000e-03    1.694e-12    8.470e-10   -4.441e-10   -7.772e-07  
  3.0000e-03    2.544e-12    8.474e-10   -4.136e-22    1.443e-06  
  4.0000e-03    3.394e-12    8.493e-10    4.441e-10    4.441e-07  
  5.0000e-03    4.245e-12    8.504e-10    1.887e-09    4.441e-07  
  6.0000e-03    5.100e-12    8.513e-10    1.110e-09    1.443e-06  
  7.0000e-03    5.958e-12    8.544e-10    8.882e-10   -7.772e-07  
  8.0000e-03    6.818e-12    8.580e-10    3.109e-09   -2.220e-07  
  9.0000e-03    7.683e-12    8.598e-10    3.553e-09    2.220e-06  
  1.0000e-02    8.551e-12    8.651e-10    1.776e-09    4.441e-07  
  1.1000e-02    9.427e-12    8.686e-10    5.329e-09   -1.776e-06  
  1.2000e-02    1.031e-11    8.757e-10    3.553e-09    3.553e-06  
  1.3000e-02    1.120e-11    8.828e-10    7.105e-09   -1.776e-06  
  1.4000e-02    1.210e-11    8.900e-10    7.105e-09    3.553e-06  
  1.5000e-02    1.301e-11    8.971e-10    7.105e-09    1.034e-19  
  1.6000e-02    1.393e-11    9.095e-10    7.105e-09      0.       
  1.7000e-02    1.486e-11    9.202e-10    1.243e-08      0.       
  1.8000e-02    1.581e-11    9.308e-10    1.066e-08    5.329e-06  
  1.9000e-02    1.677e-11    9.486e-10    1.066e-08   -1.776e-06  
  2.0000e-02    1.775e-11    9.663e-10    1.776e-08      0.       
  2.1000e-02    1.875e-11    9.805e-10    1.776e-08    7.105e-06  
  2.2000e-02    1.977e-11    9.983e-10    1.421e-08    1.320e-17  
  2.3000e-02    2.081e-11    1.023e-09    1.776e-08   -3.553e-06  
  2.4000e-02    2.188e-11    1.037e-09    2.487e-08    3.553e-06  
  2.5000e-02    2.297e-11    1.069e-09    1.421e-08    7.105e-06  
  2.6000e-02    2.409e-11    1.087e-09    3.197e-08   -1.066e-05  
  2.7000e-02    2.524e-11    1.123e-09    1.776e-08    1.776e-05  
  2.8000e-02    2.641e-11    1.151e-09    3.553e-08   -1.421e-05  
  2.9000e-02    2.763e-11    1.169e-09    2.842e-08    1.776e-05  
  3.0000e-02    2.887e-11    1.219e-09    1.776e-08   -7.105e-06  
  3.1000e-02    3.015e-11    1.243e-09    4.974e-08   -1.066e-05  
  3.2000e-02    3.147e-11    1.279e-09    2.487e-08    3.197e-05  
  3.3000e-02    3.283e-11    1.322e-09    3.553e-08   -2.487e-05  
  3.4000e-02    3.423e-11    1.361e-09    4.263e-08    1.066e-05  
  3.5000e-02    3.569e-11    1.400e-09    3.908e-08    7.105e-06  
  3.6000e-02    3.719e-11    1.457e-09    3.908e-08   -3.553e-06  
  3.7000e-02    3.872e-11    1.499e-09    5.684e-08      0.       
  3.8000e-02    4.032e-11    1.528e-09    4.263e-08    1.776e-05  
  3.9000e-02    4.196e-11    1.606e-09    2.842e-08   -1.421e-05  
  4.0000e-02    4.367e-11    1.641e-09    7.816e-08   -1.421e-05  
  4.1000e-02    4.543e-11    1.705e-09    3.553e-08    4.974e-05  
  4.2000e-02    4.725e-11    1.762e-09    6.395e-08   -4.263e-05  
  4.3000e-02    4.913e-11    1.819e-09    5.684e-08    2.842e-05  
  4.4000e-02    5.109e-11    1.883e-09    5.684e-08   -7.105e-06  
  4.5000e-02    5.310e-11    1.954e-09    6.395e-08    2.051e-19  
  4.6000e-02    5.519e-11    2.011e-09    7.105e-08    7.105e-06  
  4.7000e-02    5.735e-11    2.096e-09    5.684e-08    7.105e-06  
  4.8000e-02    5.959e-11    2.153e-09    8.527e-08   -1.421e-05  
  4.9000e-02    6.192e-11    2.245e-09    5.684e-08    2.842e-05  
  5.0000e-02    6.430e-11    2.323e-09    9.237e-08   -2.842e-05  
  5.1000e-02    6.681e-11    2.387e-09    7.816e-08    3.553e-05  
  5.2000e-02    6.937e-11    2.501e-09    6.395e-08   -1.421e-05  
  5.3000e-02    7.205e-11    2.565e-09    1.137e-07   -1.421e-05  
  5.4000e-02    7.481e-11    2.679e-09    6.395e-08    4.974e-05  
  5.5000e-02    7.768e-11    2.757e-09    1.137e-07   -4.974e-05  
  5.6000e-02    8.065e-11    2.878e-09    7.816e-08    4.974e-05  
  5.7000e-02    8.373e-11    2.963e-09    1.208e-07   -3.553e-05  
  5.8000e-02    8.693e-11    3.084e-09    8.527e-08    4.263e-05  
  5.9000e-02    9.022e-11    3.197e-09    1.208e-07   -3.553e-05  
  6.0000e-02    9.365e-11    3.290e-09    1.137e-07    3.553e-05  
  6.1000e-02    9.720e-11    3.432e-09    9.237e-08   -7.105e-06  
  6.2000e-02    1.009e-10    3.553e-09    1.421e-07   -2.132e-05  
  6.3000e-02    1.047e-10    3.674e-09    1.208e-07    4.974e-05  
  6.4000e-02    1.087e-10    3.837e-09    1.208e-07   -2.132e-05  
  6.5000e-02    1.128e-10    3.965e-09    1.634e-07    4.235e-19  
  6.6000e-02    1.170e-10    4.086e-09    1.279e-07    4.263e-05  
  6.7000e-02    1.214e-10    4.263e-09    1.208e-07   -3.553e-05  
  6.8000e-02    1.260e-10    4.405e-09    1.776e-07   -7.105e-06  
  6.9000e-02    1.307e-10    4.562e-09    1.421e-07    5.684e-05  
  7.0000e-02    1.356e-10    4.746e-09    1.563e-07   -3.553e-05  
  7.1000e-02    1.407e-10    4.903e-09    1.847e-07    1.421e-05  
  7.2000e-02    1.460e-10    5.087e-09    1.563e-07    2.842e-05  
  7.3000e-02    1.515e-10    5.315e-09    1.847e-07   -2.842e-05  
  7.4000e-02    1.572e-10    5.443e-09    2.274e-07    2.842e-05  
  7.5000e-02    1.631e-10    5.699e-09    1.279e-07    4.263e-05  
  7.6000e-02    1.692e-10    5.883e-09    2.558e-07   -9.948e-05  
  7.7000e-02    1.755e-10    6.096e-09    1.847e-07    1.279e-04  
  7.8000e-02    1.821e-10    6.352e-09    2.132e-07   -7.105e-05  
  7.9000e-02    1.888e-10    6.551e-09    2.558e-07    2.842e-05  
  8.0000e-02    1.959e-10    6.764e-09    1.990e-07    4.263e-05  
  8.1000e-02    2.032e-10    7.063e-09    2.132e-07   -5.684e-05  
  8.2000e-02    2.108e-10    7.333e-09    2.984e-07    1.421e-05  
  8.3000e-02    2.186e-10    7.574e-09    2.700e-07    8.527e-05  
  8.4000e-02    2.268e-10    7.844e-09    2.416e-07   -2.842e-05  
  8.5000e-02    2.352e-10    8.157e-09    2.700e-07   -2.842e-05  
  8.6000e-02    2.440e-10    8.441e-09    3.126e-07    2.842e-05  
  8.7000e-02    2.531e-10    8.740e-09    2.842e-07    4.263e-05  
  8.8000e-02    2.625e-10    9.095e-09    2.984e-07   -2.842e-05  
  8.9000e-02    2.723e-10    9.436e-09    3.553e-07    1.421e-05  
  9.0000e-02    2.824e-10    9.734e-09    3.411e-07    5.684e-05  
  9.1000e-02    2.929e-10    1.010e-08    2.984e-07   -1.421e-05  
  9.2000e-02    3.037e-10    1.052e-08    3.695e-07   -4.263e-05  
  9.3000e-02    3.150e-10    1.086e-08    4.121e-07    7.105e-05  
  9.4000e-02    3.267e-10    1.128e-08    3.411e-07    4.263e-05  
  9.5000e-02    3.388e-10    1.170e-08    4.263e-07   -7.105e-05  
  9.6000e-02    3.514e-10    1.214e-08    4.121e-07    8.527e-05  
  9.7000e-02    3.644e-10    1.256e-08    4.405e-07   -1.421e-05  
  9.8000e-02    3.779e-10    1.302e-08    4.263e-07    2.842e-05  
  9.9000e-02    3.919e-10    1.351e-08    4.547e-07   -1.421e-05  
    0.10000     4.065e-10    1.401e-08    4.974e-07    2.842e-05  
y
x

        volt    param      
                    gx4    
   -0.10000       0.       
 -9.9000e-02      0.       
 -9.8000e-02      0.       
 -9.7000e-02      0.       
 -9.6000e-02   -406.4447   
 -9.5000e-02    1.233e+03  
 -9.4000e-02   -1.248e+03  
 -9.3000e-02    421.3518   
 -9.2000e-02    9.948e-02  
 -9.1000e-02   -1.421e-02  
 -9.0000e-02   -5.421e-17  
 -8.9000e-02   -5.684e-02  
 -8.8000e-02    9.948e-02  
 -8.7000e-02     -0.1421   
 -8.6000e-02      0.2132   
 -8.5000e-02     -0.2700   
 -8.4000e-02      0.2558   
 -8.3000e-02     -0.1990   
 -8.2000e-02      0.1563   
 -8.1000e-02     -0.1279   
 -8.0000e-02    7.105e-02  
 -7.9000e-02    1.694e-15  
 -7.8000e-02   -5.684e-02  
 -7.7000e-02    8.527e-02  
 -7.6000e-02   -7.105e-02  
 -7.5000e-02    1.421e-02  
 -7.4000e-02    1.421e-02  
 -7.3000e-02    2.936e-13  
 -7.2000e-02    2.842e-02  
 -7.1000e-02     -0.1137   
 -7.0000e-02      0.1421   
 -6.9000e-02   -5.684e-02  
 -6.8000e-02   -8.527e-02  
 -6.7000e-02      0.1990   
 -6.6000e-02     -0.2274   
 -6.5000e-02      0.1421   
 -6.4000e-02   -2.842e-02  
 -6.3000e-02   -2.711e-17  
 -6.2000e-02   -2.842e-02  
 -6.1000e-02    4.263e-02  
 -6.0000e-02   -4.974e-02  
 -5.9000e-02    4.974e-02  
 -5.8000e-02   -4.263e-02  
 -5.7000e-02    2.842e-02  
 -5.6000e-02   -1.421e-02  
 -5.5000e-02    2.132e-02  
 -5.4000e-02   -4.263e-02  
 -5.3000e-02    6.395e-02  
 -5.2000e-02   -7.816e-02  
 -5.1000e-02    4.974e-02  
 -5.0000e-02    2.132e-02  
 -4.9000e-02   -9.237e-02  
 -4.8000e-02      0.1208   
 -4.7000e-02   -9.948e-02  
 -4.6000e-02    6.395e-02  
 -4.5000e-02   -5.684e-02  
 -4.4000e-02    7.816e-02  
 -4.3000e-02   -8.527e-02  
 -4.2000e-02    4.974e-02  
 -4.1000e-02   -7.105e-03  
 -4.0000e-02   -1.421e-02  
 -3.9000e-02    2.842e-02  
 -3.8000e-02   -3.553e-02  
 -3.7000e-02    2.842e-02  
 -3.6000e-02   -2.132e-02  
 -3.5000e-02    7.105e-03  
 -3.4000e-02    7.105e-03  
 -3.3000e-02    7.105e-03  
 -3.2000e-02   -2.842e-02  
 -3.1000e-02    2.842e-02  
 -3.0000e-02   -2.132e-02  
 -2.9000e-02    7.105e-03  
 -2.8000e-02    1.066e-02  
 -2.7000e-02   -1.066e-02  
 -2.6000e-02   -3.553e-03  
 -2.5000e-02    1.776e-02  
 -2.4000e-02   -2.842e-02  
 -2.3000e-02    2.132e-02  
 -2.2000e-02    7.105e-03  
 -2.1000e-02   -2.132e-02  
 -2.0000e-02    3.553e-03  
 -1.9000e-02    3.553e-03  
 -1.8000e-02    1.776e-02  
 -1.7000e-02   -2.487e-02  
 -1.6000e-02    7.105e-03  
 -1.5000e-02      0.       
 -1.4000e-02    3.553e-03  
 -1.3000e-02      0.       
 -1.2000e-02   -7.105e-03  
 -1.1000e-02    1.243e-02  
 -1.0000e-02   -1.421e-02  
 -9.0000e-03    8.882e-03  
 -8.0000e-03   -3.773e-14  
 -7.0000e-03   -3.553e-03  
 -6.0000e-03   -1.251e-14  
 -5.0000e-03   -1.776e-03  
 -4.0000e-03    1.066e-02  
 -3.0000e-03   -1.510e-02  
 -2.0000e-03    8.882e-03  
 -1.0000e-03   -1.776e-03  
    0.         -1.332e-03  
  1.0000e-03    2.665e-03  
  2.0000e-03   -2.442e-03  
  3.0000e-03   -5.551e-04  
  4.0000e-03    2.220e-03  
  5.0000e-03   -9.992e-04  
  6.0000e-03    1.247e-15  
  7.0000e-03    9.992e-04  
  8.0000e-03   -2.220e-03  
  9.0000e-03    5.551e-04  
  1.0000e-02    2.442e-03  
  1.1000e-02   -1.776e-03  
  1.2000e-02   -2.220e-03  
  1.3000e-02    5.329e-03  
  1.4000e-02   -5.329e-03  
  1.5000e-02    5.329e-03  
  1.6000e-02   -3.553e-03  
  1.7000e-02   -1.034e-16  
  1.8000e-02      0.       
  1.9000e-02    5.329e-03  
  2.0000e-02   -7.105e-03  
  2.1000e-02    1.776e-03  
  2.2000e-02    7.105e-03  
  2.3000e-02   -7.105e-03  
  2.4000e-02   -3.553e-03  
  2.5000e-02    7.105e-03  
  2.6000e-02    3.553e-03  
  2.7000e-02   -1.776e-02  
  2.8000e-02    2.842e-02  
  2.9000e-02   -3.197e-02  
  3.0000e-02    3.197e-02  
  3.1000e-02   -2.487e-02  
  3.2000e-02   -3.553e-03  
  3.3000e-02    4.263e-02  
  3.4000e-02   -5.684e-02  
  3.5000e-02    3.553e-02  
  3.6000e-02   -3.553e-03  
  3.7000e-02   -1.066e-02  
  3.8000e-02    3.553e-03  
  3.9000e-02    1.776e-02  
  4.0000e-02   -3.197e-02  
  4.1000e-02   -2.050e-16  
  4.2000e-02    6.395e-02  
  4.3000e-02   -9.237e-02  
  4.4000e-02    7.105e-02  
  4.5000e-02   -3.553e-02  
  4.6000e-02    7.105e-03  
  4.7000e-02    7.105e-03  
  4.8000e-02    5.062e-14  
  4.9000e-02   -2.132e-02  
  5.0000e-02    4.263e-02  
  5.1000e-02   -5.684e-02  
  5.2000e-02    6.395e-02  
  5.3000e-02   -4.974e-02  
  5.4000e-02      0.       
  5.5000e-02    6.395e-02  
  5.6000e-02   -9.948e-02  
  5.7000e-02    9.948e-02  
  5.8000e-02   -8.527e-02  
  5.9000e-02    7.816e-02  
  6.0000e-02   -7.816e-02  
  6.1000e-02    7.105e-02  
  6.2000e-02   -4.263e-02  
  6.3000e-02   -1.421e-02  
  6.4000e-02    7.105e-02  
  6.5000e-02   -7.105e-02  
  6.6000e-02    2.132e-02  
  6.7000e-02    4.263e-02  
  6.8000e-02   -7.816e-02  
  6.9000e-02    2.842e-02  
  7.0000e-02    6.395e-02  
  7.1000e-02   -9.237e-02  
  7.2000e-02    4.974e-02  
  7.3000e-02    1.421e-02  
  7.4000e-02   -5.684e-02  
  7.5000e-02    5.684e-02  
  7.6000e-02    1.421e-02  
  7.7000e-02     -0.1421   
  7.8000e-02      0.2274   
  7.9000e-02     -0.1990   
  8.0000e-02    9.948e-02  
  8.1000e-02    1.421e-02  
  8.2000e-02   -9.948e-02  
  8.3000e-02    7.105e-02  
  8.4000e-02    7.105e-02  
  8.5000e-02     -0.1137   
  8.6000e-02   -7.928e-16  
  8.7000e-02    5.684e-02  
  8.8000e-02    1.421e-02  
  8.9000e-02   -7.105e-02  
  9.0000e-02    4.263e-02  
  9.1000e-02    4.263e-02  
  9.2000e-02   -7.105e-02  
  9.3000e-02   -2.842e-02  
  9.4000e-02      0.1137   
  9.5000e-02   -2.842e-02  
  9.6000e-02     -0.1137   
  9.7000e-02      0.1563   
  9.8000e-02   -9.948e-02  
  9.9000e-02    4.263e-02  
    0.10000    -4.263e-02  
y
-----------------------------------------------
 ******  
 *sample netlist for bsim-mg

  ******  dc transfer curves tnom=  25.000 temp=  25.000 *****

   *** source        0:vgate =   -0.2000        ***

x

        volt    param        param        param        param      
                    ids          gx           gx2          gx3    
   -0.10000    -3.181e-07   -4.065e-09   -1.401e-07   -4.974e-06  
 -9.9000e-02   -3.078e-07   -3.185e-04   -1.808e-05   -6.375e-04  
 -9.8000e-02   -2.977e-07    1.035e-05     -0.3185    -1.794e-02  
 -9.7000e-02   -2.880e-07    1.004e-05      0.3289    -318.5009   
 -9.6000e-02   -2.786e-07    9.732e-06   -3.149e-04    647.3953   
 -9.5000e-02   -2.694e-07    9.434e-06   -3.064e-04   -329.1913   
 -9.4000e-02   -2.606e-07    9.144e-06   -2.980e-04    8.541e-03  
 -9.3000e-02   -2.520e-07    8.863e-06   -2.897e-04    8.413e-03  
 -9.2000e-02   -2.436e-07    8.589e-06   -2.817e-04    8.242e-03  
 -9.1000e-02   -2.356e-07    8.323e-06   -2.738e-04    8.015e-03  
 -9.0000e-02   -2.278e-07    8.064e-06   -2.662e-04    7.873e-03  
 -8.9000e-02   -2.202e-07    7.813e-06   -2.586e-04    7.617e-03  
 -8.8000e-02   -2.129e-07    7.568e-06   -2.514e-04    7.589e-03  
 -8.7000e-02   -2.058e-07    7.331e-06   -2.442e-04    7.262e-03  
 -8.6000e-02   -1.989e-07    7.101e-06   -2.372e-04    7.205e-03  
 -8.5000e-02   -1.922e-07    6.877e-06   -2.304e-04    6.963e-03  
 -8.4000e-02   -1.858e-07    6.660e-06   -2.237e-04    6.835e-03  
 -8.3000e-02   -1.795e-07    6.449e-06   -2.172e-04    6.651e-03  
 -8.2000e-02   -1.735e-07    6.244e-06   -2.109e-04    6.523e-03  
 -8.1000e-02   -1.676e-07    6.046e-06   -2.047e-04    6.310e-03  
 -8.0000e-02   -1.620e-07    5.853e-06   -1.987e-04    6.196e-03  
 -7.9000e-02   -1.565e-07    5.666e-06   -1.928e-04    6.025e-03  
 -7.8000e-02   -1.512e-07    5.484e-06   -1.871e-04    5.898e-03  
 -7.7000e-02   -1.460e-07    5.308e-06   -1.814e-04    5.713e-03  
 -7.6000e-02   -1.411e-07    5.138e-06   -1.761e-04    5.627e-03  
 -7.5000e-02   -1.363e-07    4.972e-06   -1.707e-04    5.372e-03  
 -7.4000e-02   -1.316e-07    4.811e-06   -1.655e-04    5.329e-03  
 -7.3000e-02   -1.271e-07    4.656e-06   -1.606e-04    5.201e-03  
 -7.2000e-02   -1.227e-07    4.505e-06   -1.556e-04    4.960e-03  
 -7.1000e-02   -1.185e-07    4.359e-06   -1.509e-04    4.960e-03  
 -7.0000e-02   -1.144e-07    4.217e-06   -1.463e-04    4.746e-03  
 -6.9000e-02   -1.105e-07    4.080e-06   -1.417e-04    4.604e-03  
 -6.8000e-02   -1.067e-07    3.947e-06   -1.373e-04    4.562e-03  
 -6.7000e-02   -1.030e-07    3.818e-06   -1.331e-04    4.405e-03  
 -6.6000e-02   -9.941e-08    3.693e-06   -1.289e-04    4.235e-03  
 -6.5000e-02   -9.595e-08    3.572e-06   -1.248e-04    4.150e-03  
 -6.4000e-02   -9.261e-08    3.455e-06   -1.209e-04    4.064e-03  
 -6.3000e-02   -8.938e-08    3.342e-06   -1.171e-04    3.979e-03  
 -6.2000e-02   -8.626e-08    3.232e-06   -1.133e-04    3.766e-03  
 -6.1000e-02   -8.323e-08    3.126e-06   -1.097e-04    3.773e-03  
 -6.0000e-02   -8.031e-08    3.023e-06   -1.062e-04    3.581e-03  
 -5.9000e-02   -7.748e-08    2.923e-06   -1.028e-04    3.517e-03  
 -5.8000e-02   -7.475e-08    2.827e-06   -9.945e-05    3.439e-03  
 -5.7000e-02   -7.210e-08    2.734e-06   -9.624e-05    3.340e-03  
 -5.6000e-02   -6.955e-08    2.644e-06   -9.307e-05    3.205e-03  
 -5.5000e-02   -6.707e-08    2.557e-06   -9.005e-05    3.176e-03  
 -5.4000e-02   -6.468e-08    2.473e-06   -8.704e-05    3.020e-03  
 -5.3000e-02   -6.237e-08    2.392e-06   -8.417e-05    3.006e-03  
 -5.2000e-02   -6.013e-08    2.313e-06   -8.136e-05    2.871e-03  
 -5.1000e-02   -5.797e-08    2.237e-06   -7.863e-05    2.807e-03  
 -5.0000e-02   -5.588e-08    2.164e-06   -7.595e-05    2.736e-03  
 -4.9000e-02   -5.385e-08    2.093e-06   -7.338e-05    2.679e-03  
 -4.8000e-02   -5.189e-08    2.024e-06   -7.087e-05    2.565e-03  
 -4.7000e-02   -5.000e-08    1.958e-06   -6.844e-05    2.515e-03  
 -4.6000e-02   -4.817e-08    1.894e-06   -6.602e-05    2.430e-03  
 -4.5000e-02   -4.639e-08    1.833e-06   -6.374e-05    2.423e-03  
 -4.4000e-02   -4.468e-08    1.774e-06   -6.147e-05    2.281e-03  
 -4.3000e-02   -4.301e-08    1.717e-06   -5.927e-05    2.267e-03  
 -4.2000e-02   -4.141e-08    1.662e-06   -5.711e-05    2.203e-03  
 -4.1000e-02   -3.985e-08    1.609e-06   -5.504e-05    2.160e-03  
 -4.0000e-02   -3.834e-08    1.558e-06   -5.301e-05    2.068e-03  
 -3.9000e-02   -3.688e-08    1.509e-06   -5.100e-05    2.032e-03  
 -3.8000e-02   -3.546e-08    1.461e-06   -4.906e-05    2.004e-03  
 -3.7000e-02   -3.409e-08    1.416e-06   -4.714e-05    1.947e-03  
 -3.6000e-02   -3.276e-08    1.373e-06   -4.533e-05    1.918e-03  
 -3.5000e-02   -3.147e-08    1.331e-06   -4.349e-05    1.812e-03  
 -3.4000e-02   -3.021e-08    1.291e-06   -4.170e-05    1.840e-03  
 -3.3000e-02   -2.900e-08    1.253e-06   -3.995e-05    1.783e-03  
 -3.2000e-02   -2.782e-08    1.216e-06   -3.823e-05    1.748e-03  
 -3.1000e-02   -2.667e-08    1.181e-06   -3.659e-05    1.720e-03  
 -3.0000e-02   -2.555e-08    1.148e-06   -3.489e-05    1.648e-03  
 -2.9000e-02   -2.447e-08    1.116e-06   -3.330e-05    1.691e-03  
 -2.8000e-02   -2.341e-08    1.086e-06   -3.169e-05    1.599e-03  
 -2.7000e-02   -2.238e-08    1.058e-06   -3.012e-05    1.606e-03  
 -2.6000e-02   -2.137e-08    1.031e-06   -2.857e-05    1.574e-03  
 -2.5000e-02   -2.039e-08    1.005e-06   -2.705e-05    1.549e-03  
 -2.4000e-02   -1.943e-08    9.809e-07   -2.555e-05    1.517e-03  
 -2.3000e-02   -1.850e-08    9.583e-07   -2.405e-05    1.503e-03  
 -2.2000e-02   -1.758e-08    9.371e-07   -2.260e-05    1.496e-03  
 -2.1000e-02   -1.668e-08    9.174e-07   -2.118e-05    1.450e-03  
 -2.0000e-02   -1.580e-08    8.990e-07   -1.975e-05    1.418e-03  
 -1.9000e-02   -1.493e-08    8.820e-07   -1.837e-05    1.432e-03  
 -1.8000e-02   -1.408e-08    8.663e-07   -1.701e-05    1.386e-03  
 -1.7000e-02   -1.324e-08    8.520e-07   -1.566e-05    1.354e-03  
 -1.6000e-02   -1.241e-08    8.389e-07   -1.437e-05    1.350e-03  
 -1.5000e-02   -1.160e-08    8.270e-07   -1.308e-05    1.293e-03  
 -1.4000e-02   -1.079e-08    8.164e-07   -1.185e-05    1.286e-03  
 -1.3000e-02   -9.993e-09    8.069e-07   -1.064e-05    1.238e-03  
 -1.2000e-02   -9.202e-09    7.986e-07   -9.475e-06    1.210e-03  
 -1.1000e-02   -8.417e-09    7.912e-07   -8.360e-06    1.162e-03  
 -1.0000e-02   -7.637e-09    7.849e-07   -7.306e-06    1.116e-03  
 -9.0000e-03   -6.862e-09    7.795e-07   -6.306e-06    1.053e-03  
 -8.0000e-03   -6.091e-09    7.750e-07   -5.405e-06    1.000e-03  
 -7.0000e-03   -5.323e-09    7.711e-07   -4.563e-06    9.006e-04  
 -6.0000e-03   -4.558e-09    7.680e-07   -3.825e-06    8.420e-04  
 -5.0000e-03   -3.795e-09    7.653e-07   -3.186e-06    7.381e-04  
 -4.0000e-03   -3.033e-09    7.631e-07   -2.635e-06    6.395e-04  
 -3.0000e-03   -2.274e-09    7.613e-07   -2.180e-06    5.507e-04  
 -2.0000e-03   -1.515e-09    7.599e-07   -1.803e-06    4.556e-04  
 -1.0000e-03   -7.572e-10    7.586e-07   -1.489e-06    3.766e-04  
    0.          1.977e-14    7.577e-07   -1.207e-06    3.135e-04  
  1.0000e-03    7.572e-10    7.572e-07   -9.183e-07    2.822e-04  
  2.0000e-03    1.515e-09    7.572e-07   -5.544e-07    2.890e-04  
  3.0000e-03    2.274e-09    7.577e-07   -2.073e-11    3.638e-04  
  4.0000e-03    3.033e-09    7.586e-07    5.540e-07    5.544e-04  
  5.0000e-03    3.795e-09    7.599e-07    9.187e-07    5.540e-04  
  6.0000e-03    4.558e-09    7.613e-07    1.208e-06    3.647e-04  
  7.0000e-03    5.323e-09    7.631e-07    1.487e-06    2.894e-04  
  8.0000e-03    6.091e-09    7.653e-07    1.806e-06    2.787e-04  
  9.0000e-03    6.862e-09    7.680e-07    2.180e-06    3.189e-04  
  1.0000e-02    7.637e-09    7.711e-07    2.633e-06    3.748e-04  
  1.1000e-02    8.417e-09    7.750e-07    3.186e-06    4.530e-04  
  1.2000e-02    9.202e-09    7.795e-07    3.825e-06    5.524e-04  
  1.3000e-02    9.993e-09    7.849e-07    4.567e-06    6.395e-04  
  1.4000e-02    1.079e-08    7.912e-07    5.398e-06    7.416e-04  
  1.5000e-02    1.160e-08    7.986e-07    6.308e-06    8.313e-04  
  1.6000e-02    1.241e-08    8.069e-07    7.308e-06    9.095e-04  
  1.7000e-02    1.324e-08    8.164e-07    8.358e-06    1.000e-03  
  1.8000e-02    1.408e-08    8.270e-07    9.477e-06    1.050e-03  
  1.9000e-02    1.493e-08    8.389e-07    1.064e-05    1.119e-03  
  2.0000e-02    1.580e-08    8.520e-07    1.184e-05    1.162e-03  
  2.1000e-02    1.668e-08    8.663e-07    1.309e-05    1.206e-03  
  2.2000e-02    1.758e-08    8.820e-07    1.436e-05    1.243e-03  
  2.3000e-02    1.850e-08    8.990e-07    1.567e-05    1.272e-03  
  2.4000e-02    1.943e-08    9.174e-07    1.701e-05    1.315e-03  
  2.5000e-02    2.039e-08    9.371e-07    1.837e-05    1.336e-03  
  2.6000e-02    2.137e-08    9.583e-07    1.976e-05    1.361e-03  
  2.7000e-02    2.238e-08    9.809e-07    2.117e-05    1.386e-03  
  2.8000e-02    2.341e-08    1.005e-06    2.261e-05    1.414e-03  
  2.9000e-02    2.447e-08    1.031e-06    2.406e-05    1.435e-03  
  3.0000e-02    2.555e-08    1.058e-06    2.555e-05    1.450e-03  
  3.1000e-02    2.667e-08    1.086e-06    2.704e-05    1.496e-03  
  3.2000e-02    2.782e-08    1.116e-06    2.857e-05    1.489e-03  
  3.3000e-02    2.900e-08    1.148e-06    3.011e-05    1.535e-03  
  3.4000e-02    3.021e-08    1.181e-06    3.170e-05    1.538e-03  
  3.5000e-02    3.147e-08    1.216e-06    3.328e-05    1.588e-03  
  3.6000e-02    3.276e-08    1.253e-06    3.493e-05    1.577e-03  
  3.7000e-02    3.409e-08    1.291e-06    3.655e-05    1.648e-03  
  3.8000e-02    3.546e-08    1.331e-06    3.825e-05    1.624e-03  
  3.9000e-02    3.688e-08    1.373e-06    3.996e-05    1.698e-03  
  4.0000e-02    3.834e-08    1.416e-06    4.169e-05    1.712e-03  
  4.1000e-02    3.985e-08    1.461e-06    4.349e-05    1.734e-03  
  4.2000e-02    4.141e-08    1.509e-06    4.530e-05    1.798e-03  
  4.3000e-02    4.301e-08    1.558e-06    4.716e-05    1.805e-03  
  4.4000e-02    4.468e-08    1.609e-06    4.907e-05    1.862e-03  
  4.5000e-02    4.639e-08    1.662e-06    5.099e-05    1.911e-03  
  4.6000e-02    4.817e-08    1.717e-06    5.301e-05    1.918e-03  
  4.7000e-02    5.000e-08    1.774e-06    5.503e-05    2.018e-03  
  4.8000e-02    5.189e-08    1.833e-06    5.712e-05    2.025e-03  
  4.9000e-02    5.385e-08    1.894e-06    5.927e-05    2.089e-03  
  5.0000e-02    5.588e-08    1.958e-06    6.145e-05    2.146e-03  
  5.1000e-02    5.797e-08    2.024e-06    6.374e-05    2.188e-03  
  5.2000e-02    6.013e-08    2.093e-06    6.604e-05    2.281e-03  
  5.3000e-02    6.237e-08    2.164e-06    6.843e-05    2.302e-03  
  5.4000e-02    6.468e-08    2.237e-06    7.086e-05    2.387e-03  
  5.5000e-02    6.707e-08    2.313e-06    7.339e-05    2.430e-03  
  5.6000e-02    6.955e-08    2.392e-06    7.596e-05    2.537e-03  
  5.7000e-02    7.210e-08    2.473e-06    7.863e-05    2.572e-03  
  5.8000e-02    7.475e-08    2.557e-06    8.136e-05    2.665e-03  
  5.9000e-02    7.748e-08    2.644e-06    8.417e-05    2.728e-03  
  6.0000e-02    8.031e-08    2.734e-06    8.705e-05    2.814e-03  
  6.1000e-02    8.323e-08    2.827e-06    9.003e-05    2.878e-03  
  6.2000e-02    8.626e-08    2.923e-06    9.308e-05    2.977e-03  
  6.3000e-02    8.938e-08    3.023e-06    9.624e-05    3.055e-03  
  6.4000e-02    9.261e-08    3.126e-06    9.945e-05    3.162e-03  
  6.5000e-02    9.595e-08    3.232e-06    1.028e-04    3.212e-03  
  6.6000e-02    9.941e-08    3.342e-06    1.062e-04    3.325e-03  
  6.7000e-02    1.030e-07    3.455e-06    1.097e-04    3.460e-03  
  6.8000e-02    1.067e-07    3.572e-06    1.134e-04    3.460e-03  
  6.9000e-02    1.105e-07    3.693e-06    1.170e-04    3.666e-03  
  7.0000e-02    1.144e-07    3.818e-06    1.210e-04    3.674e-03  
  7.1000e-02    1.185e-07    3.947e-06    1.248e-04    3.922e-03  
  7.2000e-02    1.227e-07    4.080e-06    1.289e-04    3.809e-03  
  7.3000e-02    1.271e-07    4.217e-06    1.331e-04    4.135e-03  
  7.4000e-02    1.316e-07    4.359e-06    1.373e-04    4.164e-03  
  7.5000e-02    1.363e-07    4.505e-06    1.417e-04    4.221e-03  
  7.6000e-02    1.411e-07    4.656e-06    1.462e-04    4.420e-03  
  7.7000e-02    1.460e-07    4.812e-06    1.508e-04    4.519e-03  
  7.8000e-02    1.512e-07    4.972e-06    1.557e-04    4.619e-03  
  7.9000e-02    1.565e-07    5.138e-06    1.605e-04    4.846e-03  
  8.0000e-02    1.620e-07    5.308e-06    1.656e-04    4.789e-03  
  8.1000e-02    1.676e-07    5.484e-06    1.707e-04    5.073e-03  
  8.2000e-02    1.735e-07    5.666e-06    1.760e-04    5.187e-03  
  8.3000e-02    1.795e-07    5.853e-06    1.814e-04    5.272e-03  
  8.4000e-02    1.858e-07    6.046e-06    1.871e-04    5.429e-03  
  8.5000e-02    1.922e-07    6.244e-06    1.928e-04    5.642e-03  
  8.6000e-02    1.989e-07    6.449e-06    1.987e-04    5.684e-03  
  8.7000e-02    2.058e-07    6.660e-06    2.047e-04    5.898e-03  
  8.8000e-02    2.129e-07    6.877e-06    2.109e-04    5.997e-03  
  8.9000e-02    2.202e-07    7.101e-06    2.172e-04    6.253e-03  
  9.0000e-02    2.278e-07    7.331e-06    2.237e-04    6.253e-03  
  9.1000e-02    2.356e-07    7.568e-06    2.304e-04    6.565e-03  
  9.2000e-02    2.436e-07    7.813e-06    2.372e-04    6.651e-03  
  9.3000e-02    2.520e-07    8.064e-06    2.442e-04    6.779e-03  
  9.4000e-02    2.606e-07    8.323e-06    2.513e-04    7.077e-03  
  9.5000e-02    2.694e-07    8.589e-06    2.587e-04    7.063e-03  
  9.6000e-02    2.786e-07    8.863e-06    2.662e-04    7.375e-03  
  9.7000e-02    2.880e-07    9.144e-06    2.739e-04    7.518e-03  
  9.8000e-02    2.977e-07    9.434e-06    2.817e-04    7.660e-03  
  9.9000e-02    3.078e-07    9.732e-06    2.898e-04    7.859e-03  
    0.10000     3.181e-07    1.004e-05    2.979e-04    8.043e-03  
y
x

        volt    param      
                    gx4    
   -0.10000    -2.842e-04  
 -9.9000e-02   -3.340e-02  
 -9.8000e-02     -0.6325   
 -9.7000e-02    -17.2989   
 -9.6000e-02   -3.184e+05  
 -9.5000e-02    9.659e+05  
 -9.4000e-02   -9.765e+05  
 -9.3000e-02    3.292e+05  
 -9.2000e-02     -0.1279   
 -9.1000e-02     -0.1705   
 -9.0000e-02     -0.2274   
 -8.9000e-02     -0.1421   
 -8.8000e-02     -0.2558   
 -8.7000e-02   -2.842e-02  
 -8.6000e-02     -0.3268   
 -8.5000e-02   -5.684e-02  
 -8.4000e-02     -0.2416   
 -8.3000e-02     -0.1279   
 -8.2000e-02     -0.1847   
 -8.1000e-02     -0.1279   
 -8.0000e-02     -0.2132   
 -7.9000e-02     -0.1137   
 -7.8000e-02     -0.1705   
 -7.7000e-02     -0.1279   
 -7.6000e-02     -0.1847   
 -7.5000e-02   -8.527e-02  
 -7.4000e-02     -0.2558   
 -7.3000e-02   -4.263e-02  
 -7.2000e-02     -0.1279   
 -7.1000e-02     -0.2416   
 -7.0000e-02      0.       
 -6.9000e-02     -0.2132   
 -6.8000e-02     -0.1421   
 -6.7000e-02   -4.263e-02  
 -6.6000e-02     -0.1563   
 -6.5000e-02     -0.1705   
 -6.4000e-02   -8.527e-02  
 -6.3000e-02   -8.527e-02  
 -6.2000e-02   -8.527e-02  
 -6.1000e-02     -0.2132   
 -6.0000e-02    7.105e-03  
 -5.9000e-02     -0.1918   
 -5.8000e-02   -6.395e-02  
 -5.7000e-02   -7.816e-02  
 -5.6000e-02   -9.948e-02  
 -5.5000e-02     -0.1350   
 -5.4000e-02   -2.842e-02  
 -5.3000e-02     -0.1563   
 -5.2000e-02   -1.421e-02  
 -5.1000e-02     -0.1350   
 -5.0000e-02   -6.395e-02  
 -4.9000e-02   -7.105e-02  
 -4.8000e-02   -5.684e-02  
 -4.7000e-02     -0.1137   
 -4.6000e-02   -4.974e-02  
 -4.5000e-02   -8.527e-02  
 -4.4000e-02   -7.105e-03  
 -4.3000e-02     -0.1421   
 -4.2000e-02   -1.421e-02  
 -4.1000e-02   -6.395e-02  
 -4.0000e-02   -4.263e-02  
 -3.9000e-02   -9.237e-02  
 -3.8000e-02   -3.553e-02  
 -3.7000e-02   -2.842e-02  
 -3.6000e-02   -5.684e-02  
 -3.5000e-02   -2.842e-02  
 -3.4000e-02     -0.1066   
 -3.3000e-02    2.842e-02  
 -3.2000e-02   -5.684e-02  
 -3.1000e-02   -3.553e-02  
 -3.0000e-02   -2.842e-02  
 -2.9000e-02   -7.105e-02  
 -2.8000e-02    4.263e-02  
 -2.7000e-02   -9.237e-02  
 -2.6000e-02    7.105e-03  
 -2.5000e-02   -3.197e-02  
 -2.4000e-02   -2.487e-02  
 -2.3000e-02   -3.197e-02  
 -2.2000e-02   -1.421e-02  
 -2.1000e-02   -7.105e-03  
 -2.0000e-02   -4.619e-02  
 -1.9000e-02   -3.197e-02  
 -1.8000e-02    1.421e-02  
 -1.7000e-02   -4.619e-02  
 -1.6000e-02   -3.197e-02  
 -1.5000e-02   -3.553e-03  
 -1.4000e-02   -5.684e-02  
 -1.3000e-02   -7.105e-03  
 -1.2000e-02   -4.796e-02  
 -1.1000e-02   -2.842e-02  
 -1.0000e-02   -4.796e-02  
 -9.0000e-03   -4.619e-02  
 -8.0000e-03   -6.217e-02  
 -7.0000e-03   -5.329e-02  
 -6.0000e-03   -9.948e-02  
 -5.0000e-03   -5.862e-02  
 -4.0000e-03     -0.1039   
 -3.0000e-03   -9.859e-02  
 -2.0000e-03   -8.882e-02  
 -1.0000e-03   -9.504e-02  
    0.         -7.905e-02  
  1.0000e-03   -6.306e-02  
  2.0000e-03   -3.131e-02  
  3.0000e-03    6.772e-03  
  4.0000e-03    7.484e-02  
  5.0000e-03      0.1906   
  6.0000e-03   -3.819e-04  
  7.0000e-03     -0.1893   
  8.0000e-03   -7.526e-02  
  9.0000e-03   -1.077e-02  
  1.0000e-02    4.019e-02  
  1.1000e-02    5.596e-02  
  1.2000e-02    7.816e-02  
  1.3000e-02    9.948e-02  
  1.4000e-02    8.704e-02  
  1.5000e-02      0.1021   
  1.6000e-02    8.971e-02  
  1.7000e-02    7.816e-02  
  1.8000e-02    9.059e-02  
  1.9000e-02    4.974e-02  
  2.0000e-02    6.928e-02  
  2.1000e-02    4.263e-02  
  2.2000e-02    4.441e-02  
  2.3000e-02    3.730e-02  
  2.4000e-02    2.842e-02  
  2.5000e-02    4.263e-02  
  2.6000e-02    2.132e-02  
  2.7000e-02    2.487e-02  
  2.8000e-02    2.487e-02  
  2.9000e-02    2.842e-02  
  3.0000e-02    2.132e-02  
  3.1000e-02    1.421e-02  
  3.2000e-02    4.619e-02  
  3.3000e-02   -7.105e-03  
  3.4000e-02    4.619e-02  
  3.5000e-02    3.553e-03  
  3.6000e-02    4.974e-02  
  3.7000e-02   -1.066e-02  
  3.8000e-02    7.105e-02  
  3.9000e-02   -2.487e-02  
  4.0000e-02    7.461e-02  
  4.1000e-02    1.421e-02  
  4.2000e-02    2.132e-02  
  4.3000e-02    6.395e-02  
  4.4000e-02    7.105e-03  
  4.5000e-02    5.684e-02  
  4.6000e-02    4.974e-02  
  4.7000e-02    7.105e-03  
  4.8000e-02    9.948e-02  
  4.9000e-02    7.105e-03  
  5.0000e-02    6.395e-02  
  5.1000e-02    5.684e-02  
  5.2000e-02    4.263e-02  
  5.3000e-02    9.237e-02  
  5.4000e-02    2.132e-02  
  5.5000e-02    8.527e-02  
  5.6000e-02    4.263e-02  
  5.7000e-02      0.1066   
  5.8000e-02    3.553e-02  
  5.9000e-02    9.237e-02  
  6.0000e-02    6.395e-02  
  6.1000e-02    8.527e-02  
  6.2000e-02    6.395e-02  
  6.3000e-02    9.948e-02  
  6.4000e-02    7.816e-02  
  6.5000e-02      0.1066   
  6.6000e-02    4.974e-02  
  6.7000e-02      0.1137   
  6.8000e-02      0.1350   
  6.9000e-02   -4.202e-13  
  7.0000e-02      0.2061   
  7.1000e-02    7.105e-03  
  7.2000e-02      0.2487   
  7.3000e-02     -0.1137   
  7.4000e-02      0.3268   
  7.5000e-02    2.842e-02  
  7.6000e-02    5.684e-02  
  7.7000e-02      0.1990   
  7.8000e-02    9.948e-02  
  7.9000e-02    9.948e-02  
  8.0000e-02      0.2274   
  8.1000e-02   -5.684e-02  
  8.2000e-02      0.2842   
  8.3000e-02      0.1137   
  8.4000e-02    8.527e-02  
  8.5000e-02      0.1563   
  8.6000e-02      0.2132   
  8.7000e-02    4.263e-02  
  8.8000e-02      0.2132   
  8.9000e-02    9.948e-02  
  9.0000e-02      0.2558   
  9.1000e-02      0.       
  9.2000e-02      0.3126   
  9.3000e-02    8.527e-02  
  9.4000e-02      0.1279   
  9.5000e-02      0.2984   
  9.6000e-02   -1.421e-02  
  9.7000e-02      0.3126   
  9.8000e-02      0.1421   
  9.9000e-02      0.1421   
    0.10000       0.1990   
y
-----------------------------------------------
 ******  
 *sample netlist for bsim-mg

  ******  dc transfer curves tnom=  25.000 temp=  25.000 *****

   *** source        0:vgate =   -0.4000        ***

x

        volt    param        param        param        param      
                    ids          gx           gx2          gx3    
   -0.10000    -2.144e-05   -3.181e-06   -1.004e-04   -2.979e-03  
 -9.9000e-02   -2.116e-05   -2.176e-02   -1.322e-02     -0.3983   
 -9.8000e-02   -2.087e-05    2.880e-04    -21.7585     -13.1192   
 -9.7000e-02   -2.059e-05    2.859e-04     22.0496    -2.174e+04  
 -9.6000e-02   -2.030e-05    2.838e-04   -2.079e-03    4.380e+04  
 -9.5000e-02   -2.002e-05    2.818e-04   -2.071e-03   -2.205e+04  
 -9.4000e-02   -1.975e-05    2.797e-04   -2.064e-03    7.120e-03  
 -9.3000e-02   -1.947e-05    2.777e-04   -2.057e-03    7.304e-03  
 -9.2000e-02   -1.920e-05    2.756e-04   -2.049e-03    7.446e-03  
 -9.1000e-02   -1.893e-05    2.736e-04   -2.041e-03    7.773e-03  
 -9.0000e-02   -1.866e-05    2.716e-04   -2.033e-03    7.901e-03  
 -8.9000e-02   -1.839e-05    2.696e-04   -2.024e-03    8.157e-03  
 -8.8000e-02   -1.812e-05    2.675e-04   -2.016e-03    8.370e-03  
 -8.7000e-02   -1.786e-05    2.655e-04   -2.007e-03    8.569e-03  
 -8.6000e-02   -1.760e-05    2.636e-04   -1.998e-03    8.896e-03  
 -8.5000e-02   -1.734e-05    2.616e-04   -1.988e-03    9.138e-03  
 -8.4000e-02   -1.708e-05    2.596e-04   -1.979e-03    9.365e-03  
 -8.3000e-02   -1.683e-05    2.577e-04   -1.969e-03    9.706e-03  
 -8.2000e-02   -1.657e-05    2.557e-04   -1.959e-03    9.905e-03  
 -8.1000e-02   -1.632e-05    2.538e-04   -1.948e-03    1.029e-02  
 -8.0000e-02   -1.607e-05    2.518e-04   -1.937e-03    1.052e-02  
 -7.9000e-02   -1.582e-05    2.499e-04   -1.926e-03    1.098e-02  
 -7.8000e-02   -1.558e-05    2.480e-04   -1.914e-03    1.121e-02  
 -7.7000e-02   -1.533e-05    2.461e-04   -1.902e-03    1.154e-02  
 -7.6000e-02   -1.509e-05    2.443e-04   -1.890e-03    1.205e-02  
 -7.5000e-02   -1.485e-05    2.424e-04   -1.877e-03    1.225e-02  
 -7.4000e-02   -1.461e-05    2.405e-04   -1.864e-03    1.286e-02  
 -7.3000e-02   -1.437e-05    2.387e-04   -1.850e-03    1.307e-02  
 -7.2000e-02   -1.414e-05    2.369e-04   -1.836e-03    1.361e-02  
 -7.1000e-02   -1.390e-05    2.351e-04   -1.822e-03    1.405e-02  
 -7.0000e-02   -1.367e-05    2.333e-04   -1.807e-03    1.459e-02  
 -6.9000e-02   -1.344e-05    2.315e-04   -1.791e-03    1.496e-02  
 -6.8000e-02   -1.322e-05    2.298e-04   -1.775e-03    1.553e-02  
 -6.7000e-02   -1.299e-05    2.280e-04   -1.759e-03    1.612e-02  
 -6.6000e-02   -1.276e-05    2.263e-04   -1.741e-03    1.663e-02  
 -6.5000e-02   -1.254e-05    2.246e-04   -1.724e-03    1.722e-02  
 -6.4000e-02   -1.232e-05    2.229e-04   -1.705e-03    1.782e-02  
 -6.3000e-02   -1.210e-05    2.212e-04   -1.686e-03    1.856e-02  
 -6.2000e-02   -1.188e-05    2.196e-04   -1.666e-03    1.907e-02  
 -6.1000e-02   -1.167e-05    2.180e-04   -1.646e-03    1.986e-02  
 -6.0000e-02   -1.145e-05    2.164e-04   -1.624e-03    2.054e-02  
 -5.9000e-02   -1.124e-05    2.148e-04   -1.602e-03    2.137e-02  
 -5.8000e-02   -1.103e-05    2.132e-04   -1.579e-03    2.209e-02  
 -5.7000e-02   -1.082e-05    2.117e-04   -1.555e-03    2.294e-02  
 -5.6000e-02   -1.061e-05    2.102e-04   -1.531e-03    2.377e-02  
 -5.5000e-02   -1.040e-05    2.087e-04   -1.505e-03    2.471e-02  
 -5.4000e-02   -1.019e-05    2.073e-04   -1.478e-03    2.559e-02  
 -5.3000e-02   -9.990e-06    2.058e-04   -1.451e-03    2.660e-02  
 -5.2000e-02   -9.787e-06    2.044e-04   -1.422e-03    2.759e-02  
 -5.1000e-02   -9.585e-06    2.031e-04   -1.393e-03    2.861e-02  
 -5.0000e-02   -9.385e-06    2.018e-04   -1.362e-03    2.972e-02  
 -4.9000e-02   -9.186e-06    2.005e-04   -1.330e-03    3.084e-02  
 -4.8000e-02   -8.988e-06    1.992e-04   -1.296e-03    3.198e-02  
 -4.7000e-02   -8.791e-06    1.980e-04   -1.262e-03    3.325e-02  
 -4.6000e-02   -8.595e-06    1.968e-04   -1.226e-03    3.446e-02  
 -4.5000e-02   -8.401e-06    1.956e-04   -1.189e-03    3.573e-02  
 -4.4000e-02   -8.207e-06    1.945e-04   -1.151e-03    3.709e-02  
 -4.3000e-02   -8.015e-06    1.934e-04   -1.111e-03    3.846e-02  
 -4.2000e-02   -7.823e-06    1.924e-04   -1.070e-03    3.983e-02  
 -4.1000e-02   -7.633e-06    1.914e-04   -1.027e-03    4.133e-02  
 -4.0000e-02   -7.443e-06    1.905e-04   -9.825e-04    4.272e-02  
 -3.9000e-02   -7.254e-06    1.896e-04   -9.368e-04    4.429e-02  
 -3.8000e-02   -7.066e-06    1.888e-04   -8.894e-04    4.574e-02  
 -3.7000e-02   -6.879e-06    1.880e-04   -8.406e-04    4.734e-02  
 -3.6000e-02   -6.693e-06    1.872e-04   -7.902e-04    4.884e-02  
 -3.5000e-02   -6.507e-06    1.866e-04   -7.383e-04    5.038e-02  
 -3.4000e-02   -6.321e-06    1.859e-04   -6.849e-04    5.193e-02  
 -3.3000e-02   -6.137e-06    1.854e-04   -6.300e-04    5.339e-02  
 -3.2000e-02   -5.952e-06    1.848e-04   -5.737e-04    5.488e-02  
 -3.1000e-02   -5.768e-06    1.844e-04   -5.162e-04    5.627e-02  
 -3.0000e-02   -5.584e-06    1.840e-04   -4.574e-04    5.758e-02  
 -2.9000e-02   -5.401e-06    1.836e-04   -3.975e-04    5.877e-02  
 -2.8000e-02   -5.218e-06    1.834e-04   -3.368e-04    5.987e-02  
 -2.7000e-02   -5.035e-06    1.832e-04   -2.753e-04    6.077e-02  
 -2.6000e-02   -4.852e-06    1.830e-04   -2.134e-04    6.143e-02  
 -2.5000e-02   -4.669e-06    1.829e-04   -1.513e-04    6.195e-02  
 -2.4000e-02   -4.486e-06    1.829e-04   -8.938e-05    6.208e-02  
 -2.3000e-02   -4.303e-06    1.829e-04   -2.797e-05    6.192e-02  
 -2.2000e-02   -4.120e-06    1.830e-04    3.243e-05    6.141e-02  
 -2.1000e-02   -3.937e-06    1.832e-04    9.141e-05    6.040e-02  
 -2.0000e-02   -3.753e-06    1.834e-04    1.484e-04    5.898e-02  
 -1.9000e-02   -3.569e-06    1.836e-04    2.028e-04    5.699e-02  
 -1.8000e-02   -3.385e-06    1.839e-04    2.541e-04    5.445e-02  
 -1.7000e-02   -3.200e-06    1.843e-04    3.016e-04    5.129e-02  
 -1.6000e-02   -3.015e-06    1.846e-04    3.446e-04    4.748e-02  
 -1.5000e-02   -2.830e-06    1.851e-04    3.825e-04    4.302e-02  
 -1.4000e-02   -2.644e-06    1.855e-04    4.146e-04    3.786e-02  
 -1.3000e-02   -2.457e-06    1.860e-04    4.402e-04    3.208e-02  
 -1.2000e-02   -2.270e-06    1.864e-04    4.588e-04    2.563e-02  
 -1.1000e-02   -2.083e-06    1.869e-04    4.699e-04    1.862e-02  
 -1.0000e-02   -1.895e-06    1.874e-04    4.730e-04    1.107e-02  
 -9.0000e-03   -1.707e-06    1.878e-04    4.679e-04    3.144e-03  
 -8.0000e-03   -1.518e-06    1.883e-04    4.544e-04   -5.132e-03  
 -7.0000e-03   -1.329e-06    1.887e-04    4.326e-04   -1.348e-02  
 -6.0000e-03   -1.140e-06    1.890e-04    4.027e-04   -2.185e-02  
 -5.0000e-03   -9.503e-07    1.893e-04    3.652e-04   -2.992e-02  
 -4.0000e-03   -7.604e-07    1.896e-04    3.209e-04   -3.751e-02  
 -3.0000e-03   -5.704e-07    1.898e-04    2.709e-04   -4.430e-02  
 -2.0000e-03   -3.803e-07    1.900e-04    2.168e-04   -4.997e-02  
 -1.0000e-03   -1.902e-07    1.901e-04    1.607e-04   -5.406e-02  
    0.          1.347e-13    1.902e-04    1.055e-04   -5.609e-02  
  1.0000e-03    1.902e-07    1.902e-04    5.504e-05   -5.527e-02  
  2.0000e-03    3.803e-07    1.902e-04    1.611e-05   -5.042e-02  
  3.0000e-03    5.704e-07    1.902e-04    2.010e-10   -3.893e-02  
  4.0000e-03    7.604e-07    1.901e-04   -1.611e-05   -1.611e-02  
  5.0000e-03    9.503e-07    1.900e-04   -5.504e-05   -1.611e-02  
  6.0000e-03    1.140e-06    1.898e-04   -1.055e-04   -3.893e-02  
  7.0000e-03    1.329e-06    1.896e-04   -1.607e-04   -5.042e-02  
  8.0000e-03    1.518e-06    1.893e-04   -2.168e-04   -5.528e-02  
  9.0000e-03    1.707e-06    1.890e-04   -2.709e-04   -5.608e-02  
  1.0000e-02    1.895e-06    1.887e-04   -3.208e-04   -5.407e-02  
  1.1000e-02    2.083e-06    1.883e-04   -3.652e-04   -4.996e-02  
  1.2000e-02    2.270e-06    1.878e-04   -4.027e-04   -4.430e-02  
  1.3000e-02    2.457e-06    1.874e-04   -4.326e-04   -3.751e-02  
  1.4000e-02    2.644e-06    1.869e-04   -4.544e-04   -2.992e-02  
  1.5000e-02    2.830e-06    1.864e-04   -4.679e-04   -2.185e-02  
  1.6000e-02    3.015e-06    1.860e-04   -4.730e-04   -1.348e-02  
  1.7000e-02    3.200e-06    1.855e-04   -4.699e-04   -5.128e-03  
  1.8000e-02    3.385e-06    1.851e-04   -4.588e-04    3.139e-03  
  1.9000e-02    3.569e-06    1.846e-04   -4.402e-04    1.108e-02  
  2.0000e-02    3.753e-06    1.843e-04   -4.146e-04    1.861e-02  
  2.1000e-02    3.937e-06    1.839e-04   -3.825e-04    2.564e-02  
  2.2000e-02    4.120e-06    1.836e-04   -3.446e-04    3.207e-02  
  2.3000e-02    4.303e-06    1.834e-04   -3.016e-04    3.789e-02  
  2.4000e-02    4.486e-06    1.832e-04   -2.541e-04    4.298e-02  
  2.5000e-02    4.669e-06    1.830e-04   -2.028e-04    4.751e-02  
  2.6000e-02    4.852e-06    1.829e-04   -1.484e-04    5.127e-02  
  2.7000e-02    5.035e-06    1.829e-04   -9.140e-05    5.444e-02  
  2.8000e-02    5.218e-06    1.829e-04   -3.243e-05    5.701e-02  
  2.9000e-02    5.401e-06    1.830e-04    2.797e-05    5.897e-02  
  3.0000e-02    5.584e-06    1.832e-04    8.939e-05    6.040e-02  
  3.1000e-02    5.768e-06    1.834e-04    1.513e-04    6.142e-02  
  3.2000e-02    5.952e-06    1.836e-04    2.134e-04    6.190e-02  
  3.3000e-02    6.137e-06    1.840e-04    2.753e-04    6.210e-02  
  3.4000e-02    6.321e-06    1.844e-04    3.367e-04    6.193e-02  
  3.5000e-02    6.507e-06    1.848e-04    3.975e-04    6.142e-02  
  3.6000e-02    6.693e-06    1.854e-04    4.574e-04    6.080e-02  
  3.7000e-02    6.879e-06    1.859e-04    5.162e-04    5.984e-02  
  3.8000e-02    7.066e-06    1.866e-04    5.737e-04    5.880e-02  
  3.9000e-02    7.254e-06    1.872e-04    6.300e-04    5.755e-02  
  4.0000e-02    7.443e-06    1.880e-04    6.849e-04    5.629e-02  
  4.1000e-02    7.633e-06    1.888e-04    7.383e-04    5.486e-02  
  4.2000e-02    7.823e-06    1.896e-04    7.902e-04    5.342e-02  
  4.3000e-02    8.015e-06    1.905e-04    8.406e-04    5.191e-02  
  4.4000e-02    8.207e-06    1.914e-04    8.894e-04    5.039e-02  
  4.5000e-02    8.401e-06    1.924e-04    9.368e-04    4.883e-02  
  4.6000e-02    8.595e-06    1.934e-04    9.825e-04    4.734e-02  
  4.7000e-02    8.791e-06    1.945e-04    1.027e-03    4.577e-02  
  4.8000e-02    8.988e-06    1.956e-04    1.070e-03    4.427e-02  
  4.9000e-02    9.186e-06    1.968e-04    1.111e-03    4.273e-02  
  5.0000e-02    9.385e-06    1.980e-04    1.151e-03    4.133e-02  
  5.1000e-02    9.585e-06    1.992e-04    1.189e-03    3.985e-02  
  5.2000e-02    9.787e-06    2.005e-04    1.226e-03    3.843e-02  
  5.3000e-02    9.990e-06    2.018e-04    1.262e-03    3.710e-02  
  5.4000e-02    1.019e-05    2.031e-04    1.296e-03    3.576e-02  
  5.5000e-02    1.040e-05    2.044e-04    1.330e-03    3.442e-02  
  5.6000e-02    1.061e-05    2.058e-04    1.362e-03    3.329e-02  
  5.7000e-02    1.082e-05    2.073e-04    1.393e-03    3.193e-02  
  5.8000e-02    1.103e-05    2.087e-04    1.422e-03    3.089e-02  
  5.9000e-02    1.124e-05    2.102e-04    1.451e-03    2.968e-02  
  6.0000e-02    1.145e-05    2.117e-04    1.478e-03    2.866e-02  
  6.1000e-02    1.167e-05    2.132e-04    1.505e-03    2.758e-02  
  6.2000e-02    1.188e-05    2.148e-04    1.531e-03    2.657e-02  
  6.3000e-02    1.210e-05    2.164e-04    1.555e-03    2.564e-02  
  6.4000e-02    1.232e-05    2.180e-04    1.579e-03    2.465e-02  
  6.5000e-02    1.254e-05    2.196e-04    1.602e-03    2.382e-02  
  6.6000e-02    1.276e-05    2.212e-04    1.624e-03    2.294e-02  
  6.7000e-02    1.299e-05    2.229e-04    1.645e-03    2.210e-02  
  6.8000e-02    1.322e-05    2.246e-04    1.666e-03    2.134e-02  
  6.9000e-02    1.344e-05    2.263e-04    1.686e-03    2.053e-02  
  7.0000e-02    1.367e-05    2.280e-04    1.705e-03    1.985e-02  
  7.1000e-02    1.390e-05    2.298e-04    1.724e-03    1.917e-02  
  7.2000e-02    1.414e-05    2.315e-04    1.741e-03    1.849e-02  
  7.3000e-02    1.437e-05    2.333e-04    1.759e-03    1.778e-02  
  7.4000e-02    1.461e-05    2.351e-04    1.775e-03    1.729e-02  
  7.5000e-02    1.485e-05    2.369e-04    1.791e-03    1.658e-02  
  7.6000e-02    1.509e-05    2.387e-04    1.807e-03    1.613e-02  
  7.7000e-02    1.533e-05    2.405e-04    1.822e-03    1.550e-02  
  7.8000e-02    1.558e-05    2.424e-04    1.836e-03    1.505e-02  
  7.9000e-02    1.582e-05    2.443e-04    1.850e-03    1.451e-02  
  8.0000e-02    1.607e-05    2.461e-04    1.864e-03    1.410e-02  
  8.1000e-02    1.632e-05    2.480e-04    1.877e-03    1.356e-02  
  8.2000e-02    1.657e-05    2.499e-04    1.890e-03    1.316e-02  
  8.3000e-02    1.683e-05    2.518e-04    1.902e-03    1.276e-02  
  8.4000e-02    1.708e-05    2.538e-04    1.914e-03    1.241e-02  
  8.5000e-02    1.734e-05    2.557e-04    1.926e-03    1.187e-02  
  8.6000e-02    1.760e-05    2.577e-04    1.937e-03    1.170e-02  
  8.7000e-02    1.786e-05    2.596e-04    1.948e-03    1.111e-02  
  8.8000e-02    1.812e-05    2.616e-04    1.959e-03    1.100e-02  
  8.9000e-02    1.839e-05    2.636e-04    1.969e-03    1.050e-02  
  9.0000e-02    1.866e-05    2.655e-04    1.979e-03    1.032e-02  
  9.1000e-02    1.893e-05    2.675e-04    1.988e-03    9.962e-03  
  9.2000e-02    1.920e-05    2.696e-04    1.998e-03    9.607e-03  
  9.3000e-02    1.947e-05    2.716e-04    2.007e-03    9.450e-03  
  9.4000e-02    1.975e-05    2.736e-04    2.016e-03    9.081e-03  
  9.5000e-02    2.002e-05    2.756e-04    2.024e-03    8.868e-03  
  9.6000e-02    2.030e-05    2.777e-04    2.033e-03    8.626e-03  
  9.7000e-02    2.059e-05    2.797e-04    2.041e-03    8.384e-03  
  9.8000e-02    2.087e-05    2.818e-04    2.049e-03    8.114e-03  
  9.9000e-02    2.116e-05    2.838e-04    2.057e-03    7.944e-03  
    0.10000     2.144e-05    2.859e-04    2.064e-03    7.702e-03  
y
x

        volt    param      
                    gx4    
   -0.10000    -8.043e-02  
 -9.9000e-02    -11.0226   
 -9.8000e-02   -395.3356   
 -9.7000e-02   -1.272e+04  
 -9.6000e-02   -2.173e+07  
 -9.5000e-02    6.555e+07  
 -9.4000e-02   -6.586e+07  
 -9.3000e-02    2.205e+07  
 -9.2000e-02      0.1847   
 -9.1000e-02      0.1421   
 -9.0000e-02      0.3268   
 -8.9000e-02      0.1279   
 -8.8000e-02      0.2558   
 -8.7000e-02      0.2132   
 -8.6000e-02      0.1990   
 -8.5000e-02      0.3268   
 -8.4000e-02      0.2416   
 -8.3000e-02      0.2274   
 -8.2000e-02      0.3411   
 -8.1000e-02      0.1990   
 -8.0000e-02      0.3837   
 -7.9000e-02      0.2274   
 -7.8000e-02      0.4690   
 -7.7000e-02      0.2274   
 -7.6000e-02      0.3268   
 -7.5000e-02      0.5116   
 -7.4000e-02      0.1990   
 -7.3000e-02      0.6111   
 -7.2000e-02      0.2132   
 -7.1000e-02      0.5400   
 -7.0000e-02      0.4405   
 -6.9000e-02      0.5400   
 -6.8000e-02      0.3695   
 -6.7000e-02      0.5684   
 -6.6000e-02      0.5826   
 -6.5000e-02      0.5116   
 -6.4000e-02      0.5969   
 -6.3000e-02      0.5969   
 -6.2000e-02      0.7390   
 -6.1000e-02      0.5116   
 -6.0000e-02      0.7887   
 -5.9000e-02      0.6821   
 -5.8000e-02      0.8242   
 -5.7000e-02      0.7248   
 -5.6000e-02      0.8527   
 -5.5000e-02      0.8242   
 -5.4000e-02      0.9450   
 -5.3000e-02      0.8740   
 -5.2000e-02      1.0090   
 -5.1000e-02      0.9948   
 -5.0000e-02      1.0232   
 -4.9000e-02      1.1084   
 -4.8000e-02      1.1227   
 -4.7000e-02      1.1369   
 -4.6000e-02      1.2648   
 -4.5000e-02      1.2150   
 -4.4000e-02      1.2719   
 -4.3000e-02      1.3571   
 -4.2000e-02      1.3713   
 -4.1000e-02      1.3713   
 -4.0000e-02      1.4921   
 -3.9000e-02      1.3998   
 -3.8000e-02      1.5632   
 -3.7000e-02      1.4566   
 -3.6000e-02      1.5916   
 -3.5000e-02      1.5064   
 -3.4000e-02      1.5348   
 -3.3000e-02      1.5561   
 -3.2000e-02      1.4566   
 -3.1000e-02      1.4921   
 -3.0000e-02      1.3927   
 -2.9000e-02      1.3003   
 -2.8000e-02      1.1973   
 -2.7000e-02      1.0942   
 -2.6000e-02      0.9059   
 -2.5000e-02      0.6573   
 -2.4000e-02      0.5151   
 -2.3000e-02      0.1315   
 -2.2000e-02     -0.1528   
 -2.1000e-02     -0.5151   
 -2.0000e-02     -1.0090   
 -1.9000e-02     -1.4211   
 -1.8000e-02     -1.9895   
 -1.7000e-02     -2.5402   
 -1.6000e-02     -3.1619   
 -1.5000e-02     -3.8085   
 -1.4000e-02     -4.4622   
 -1.3000e-02     -5.1514   
 -1.2000e-02     -5.7856   
 -1.1000e-02     -6.4482   
 -1.0000e-02     -7.0077   
 -9.0000e-03     -7.5495   
 -8.0000e-03     -7.9297   
 -7.0000e-03     -8.2760   
 -6.0000e-03     -8.3453   
 -5.0000e-03     -8.3737   
 -4.0000e-03     -8.0700   
 -3.0000e-03     -7.5904   
 -2.0000e-03     -6.7892   
 -1.0000e-03     -5.6666   
    0.           -4.0936   
  1.0000e-03     -2.0290   
  2.0000e-03      0.8153   
  3.0000e-03      4.8589   
  4.0000e-03     11.4807   
  5.0000e-03     22.8267   
  6.0000e-03   -8.249e-04  
  7.0000e-03    -22.8250   
  8.0000e-03    -11.4822   
  9.0000e-03     -4.8593   
  1.0000e-02     -0.8089   
  1.1000e-02      2.0153   
  1.2000e-02      4.1092   
  1.3000e-02      5.6559   
  1.4000e-02      6.7955   
  1.5000e-02      7.5842   
  1.6000e-02      8.0771   
  1.7000e-02      8.3666   
  1.8000e-02      8.3524   
  1.9000e-02      8.2672   
  2.0000e-02      7.9439   
  2.1000e-02      7.5318   
  2.2000e-02      7.0237   
  2.3000e-02      6.4269   
  2.4000e-02      5.8282   
  2.5000e-02      5.0875   
  2.6000e-02      4.5297   
  2.7000e-02      3.7588   
  2.8000e-02      3.1726   
  2.9000e-02      2.5651   
  3.0000e-02      1.9647   
  3.1000e-02      1.4282   
  3.2000e-02      1.0161   
  3.3000e-02      0.4867   
  3.4000e-02      0.2025   
  3.5000e-02     -0.1776   
  3.6000e-02     -0.5045   
  3.7000e-02     -0.6253   
  3.8000e-02     -0.9592   
  3.9000e-02     -1.0374   
  4.0000e-02     -1.2470   
  4.1000e-02     -1.2648   
  4.2000e-02     -1.4282   
  4.3000e-02     -1.4424   
  4.4000e-02     -1.5064   
  4.5000e-02     -1.5206   
  4.6000e-02     -1.5632   
  4.7000e-02     -1.4921   
  4.8000e-02     -1.5703   
  4.9000e-02     -1.4992   
  5.0000e-02     -1.5348   
  5.1000e-02     -1.4069   
  5.2000e-02     -1.4779   
  5.3000e-02     -1.4140   
  5.4000e-02     -1.3358   
  5.5000e-02     -1.3358   
  5.6000e-02     -1.3429   
  5.7000e-02     -1.1298   
  5.8000e-02     -1.3571   
  5.9000e-02     -1.0374   
  6.0000e-02     -1.2150   
  6.1000e-02     -1.0232   
  6.2000e-02     -1.0800   
  6.3000e-02     -1.0090   
  6.4000e-02     -0.9308   
  6.5000e-02     -0.9877   
  6.6000e-02     -0.8313   
  6.7000e-02     -0.8811   
  6.8000e-02     -0.8384   
  6.9000e-02     -0.7603   
  7.0000e-02     -0.8029   
  7.1000e-02     -0.6821   
  7.2000e-02     -0.6821   
  7.3000e-02     -0.6821   
  7.4000e-02     -0.7105   
  7.5000e-02     -0.4832   
  7.6000e-02     -0.7105   
  7.7000e-02     -0.4547   
  7.8000e-02     -0.6253   
  7.9000e-02     -0.4547   
  8.0000e-02     -0.5400   
  8.1000e-02     -0.4121   
  8.2000e-02     -0.5400   
  8.3000e-02     -0.3979   
  8.4000e-02     -0.3979   
  8.5000e-02     -0.3553   
  8.6000e-02     -0.5400   
  8.7000e-02     -0.1705   
  8.8000e-02     -0.5826   
  8.9000e-02     -0.1137   
  9.0000e-02     -0.4974   
  9.1000e-02     -0.1847   
  9.2000e-02     -0.3553   
  9.3000e-02     -0.3553   
  9.4000e-02     -0.1563   
  9.5000e-02     -0.3695   
  9.6000e-02     -0.2132   
  9.7000e-02     -0.2416   
  9.8000e-02     -0.2416   
  9.9000e-02     -0.2700   
    0.10000      -0.1705   
y
-----------------------------------------------
 ******  
 *sample netlist for bsim-mg

  ******  dc transfer curves tnom=  25.000 temp=  25.000 *****

   *** source        0:vgate =   -0.6000        ***

x

        volt    param        param        param        param      
                    ids          gx           gx2          gx3    
   -0.10000    -8.289e-05   -2.144e-04   -2.859e-03   -2.064e-02  
 -9.9000e-02   -8.210e-05     -0.1043      -0.5003      -4.9231   
 -9.8000e-02   -8.131e-05    7.911e-04   -104.1175    -497.4826   
 -9.7000e-02   -8.052e-05    7.908e-04    105.1231    -1.036e+05  
 -9.6000e-02   -7.973e-05    7.905e-04   -3.230e-04    2.092e+05  
 -9.5000e-02   -7.894e-05    7.902e-04   -2.944e-04   -1.051e+05  
 -9.4000e-02   -7.815e-05    7.900e-04   -2.651e-04    2.859e-02  
 -9.3000e-02   -7.736e-05    7.898e-04   -2.352e-04    2.927e-02  
 -9.2000e-02   -7.657e-05    7.896e-04   -2.048e-04    2.986e-02  
 -9.1000e-02   -7.578e-05    7.895e-04   -1.738e-04    3.045e-02  
 -9.0000e-02   -7.499e-05    7.894e-04   -1.420e-04    3.102e-02  
 -8.9000e-02   -7.420e-05    7.893e-04   -1.097e-04    3.173e-02  
 -8.8000e-02   -7.341e-05    7.892e-04   -7.674e-05    3.234e-02  
 -8.7000e-02   -7.262e-05    7.892e-04   -4.319e-05    3.294e-02  
 -8.6000e-02   -7.183e-05    7.893e-04   -8.953e-06    3.355e-02  
 -8.5000e-02   -7.104e-05    7.893e-04    2.585e-05    3.423e-02  
 -8.4000e-02   -7.025e-05    7.894e-04    6.138e-05    3.480e-02  
 -8.3000e-02   -6.946e-05    7.895e-04    9.742e-05    3.553e-02  
 -8.2000e-02   -6.867e-05    7.897e-04    1.341e-04    3.604e-02  
 -8.1000e-02   -6.788e-05    7.899e-04    1.715e-04    3.669e-02  
 -8.0000e-02   -6.709e-05    7.902e-04    2.094e-04    3.735e-02  
 -7.9000e-02   -6.630e-05    7.905e-04    2.479e-04    3.791e-02  
 -7.8000e-02   -6.551e-05    7.908e-04    2.869e-04    3.850e-02  
 -7.7000e-02   -6.472e-05    7.912e-04    3.267e-04    3.908e-02  
 -7.6000e-02   -6.393e-05    7.916e-04    3.669e-04    3.972e-02  
 -7.5000e-02   -6.313e-05    7.920e-04    4.076e-04    4.019e-02  
 -7.4000e-02   -6.234e-05    7.925e-04    4.489e-04    4.076e-02  
 -7.3000e-02   -6.155e-05    7.930e-04    4.906e-04    4.131e-02  
 -7.2000e-02   -6.075e-05    7.936e-04    5.329e-04    4.171e-02  
 -7.1000e-02   -5.996e-05    7.942e-04    5.756e-04    4.229e-02  
 -7.0000e-02   -5.916e-05    7.949e-04    6.187e-04    4.269e-02  
 -6.9000e-02   -5.837e-05    7.956e-04    6.621e-04    4.307e-02  
 -6.8000e-02   -5.757e-05    7.963e-04    7.060e-04    4.344e-02  
 -6.7000e-02   -5.677e-05    7.971e-04    7.500e-04    4.387e-02  
 -6.6000e-02   -5.597e-05    7.980e-04    7.944e-04    4.405e-02  
 -6.5000e-02   -5.517e-05    7.989e-04    8.391e-04    4.439e-02  
 -6.4000e-02   -5.437e-05    7.998e-04    8.837e-04    4.462e-02  
 -6.3000e-02   -5.357e-05    8.008e-04    9.286e-04    4.465e-02  
 -6.2000e-02   -5.277e-05    8.018e-04    9.735e-04    4.486e-02  
 -6.1000e-02   -5.196e-05    8.028e-04    1.018e-03    4.493e-02  
 -6.0000e-02   -5.116e-05    8.040e-04    1.063e-03    4.479e-02  
 -5.9000e-02   -5.035e-05    8.051e-04    1.108e-03    4.480e-02  
 -5.8000e-02   -4.954e-05    8.063e-04    1.152e-03    4.462e-02  
 -5.7000e-02   -4.874e-05    8.075e-04    1.196e-03    4.438e-02  
 -5.6000e-02   -4.793e-05    8.088e-04    1.240e-03    4.408e-02  
 -5.5000e-02   -4.711e-05    8.102e-04    1.283e-03    4.364e-02  
 -5.4000e-02   -4.630e-05    8.115e-04    1.326e-03    4.322e-02  
 -5.3000e-02   -4.549e-05    8.129e-04    1.368e-03    4.258e-02  
 -5.2000e-02   -4.467e-05    8.144e-04    1.409e-03    4.195e-02  
 -5.1000e-02   -4.385e-05    8.159e-04    1.449e-03    4.113e-02  
 -5.0000e-02   -4.303e-05    8.174e-04    1.488e-03    4.031e-02  
 -4.9000e-02   -4.221e-05    8.190e-04    1.526e-03    3.926e-02  
 -4.8000e-02   -4.139e-05    8.206e-04    1.563e-03    3.817e-02  
 -4.7000e-02   -4.057e-05    8.222e-04    1.599e-03    3.698e-02  
 -4.6000e-02   -3.974e-05    8.239e-04    1.633e-03    3.560e-02  
 -4.5000e-02   -3.891e-05    8.255e-04    1.666e-03    3.416e-02  
 -4.4000e-02   -3.809e-05    8.273e-04    1.697e-03    3.254e-02  
 -4.3000e-02   -3.726e-05    8.290e-04    1.726e-03    3.084e-02  
 -4.2000e-02   -3.642e-05    8.308e-04    1.753e-03    2.898e-02  
 -4.1000e-02   -3.559e-05    8.326e-04    1.777e-03    2.700e-02  
 -4.0000e-02   -3.475e-05    8.344e-04    1.800e-03    2.488e-02  
 -3.9000e-02   -3.391e-05    8.363e-04    1.820e-03    2.264e-02  
 -3.8000e-02   -3.307e-05    8.381e-04    1.838e-03    2.021e-02  
 -3.7000e-02   -3.223e-05    8.400e-04    1.853e-03    1.772e-02  
 -3.6000e-02   -3.139e-05    8.419e-04    1.865e-03    1.508e-02  
 -3.5000e-02   -3.054e-05    8.437e-04    1.875e-03    1.223e-02  
 -3.4000e-02   -2.969e-05    8.456e-04    1.881e-03    9.372e-03  
 -3.3000e-02   -2.885e-05    8.475e-04    1.884e-03    6.288e-03  
 -3.2000e-02   -2.799e-05    8.494e-04    1.884e-03    3.098e-03  
 -3.1000e-02   -2.714e-05    8.513e-04    1.880e-03   -1.208e-04  
 -3.0000e-02   -2.629e-05    8.531e-04    1.873e-03   -3.560e-03  
 -2.9000e-02   -2.543e-05    8.550e-04    1.863e-03   -7.070e-03  
 -2.8000e-02   -2.457e-05    8.568e-04    1.848e-03   -1.067e-02  
 -2.7000e-02   -2.371e-05    8.586e-04    1.830e-03   -1.435e-02  
 -2.6000e-02   -2.285e-05    8.604e-04    1.808e-03   -1.813e-02  
 -2.5000e-02   -2.198e-05    8.621e-04    1.782e-03   -2.196e-02  
 -2.4000e-02   -2.112e-05    8.639e-04    1.753e-03   -2.587e-02  
 -2.3000e-02   -2.025e-05    8.655e-04    1.719e-03   -2.980e-02  
 -2.2000e-02   -1.938e-05    8.672e-04    1.681e-03   -3.377e-02  
 -2.1000e-02   -1.851e-05    8.688e-04    1.639e-03   -3.777e-02  
 -2.0000e-02   -1.764e-05    8.703e-04    1.594e-03   -4.172e-02  
 -1.9000e-02   -1.677e-05    8.718e-04    1.544e-03   -4.570e-02  
 -1.8000e-02   -1.589e-05    8.732e-04    1.491e-03   -4.961e-02  
 -1.7000e-02   -1.502e-05    8.746e-04    1.433e-03   -5.348e-02  
 -1.6000e-02   -1.414e-05    8.759e-04    1.372e-03   -5.723e-02  
 -1.5000e-02   -1.326e-05    8.772e-04    1.308e-03   -6.089e-02  
 -1.4000e-02   -1.238e-05    8.783e-04    1.240e-03   -6.443e-02  
 -1.3000e-02   -1.150e-05    8.794e-04    1.169e-03   -6.776e-02  
 -1.2000e-02   -1.062e-05    8.804e-04    1.095e-03   -7.096e-02  
 -1.1000e-02   -9.738e-06    8.814e-04    1.019e-03   -7.385e-02  
 -1.0000e-02   -8.855e-06    8.822e-04    9.400e-04   -7.653e-02  
 -9.0000e-03   -7.971e-06    8.830e-04    8.591e-04   -7.886e-02  
 -8.0000e-03   -7.087e-06    8.837e-04    7.767e-04   -8.085e-02  
 -7.0000e-03   -6.202e-06    8.843e-04    6.932e-04   -8.243e-02  
 -6.0000e-03   -5.317e-06    8.849e-04    6.091e-04   -8.353e-02  
 -5.0000e-03   -4.431e-06    8.853e-04    5.251e-04   -8.408e-02  
 -4.0000e-03   -3.545e-06    8.857e-04    4.419e-04   -8.402e-02  
 -3.0000e-03   -2.659e-06    8.859e-04    3.603e-04   -8.320e-02  
 -2.0000e-03   -1.773e-06    8.861e-04    2.816e-04   -8.152e-02  
 -1.0000e-03   -8.864e-07    8.863e-04    2.069e-04   -7.877e-02  
    0.          2.309e-13    8.864e-04    1.380e-04   -7.471e-02  
  1.0000e-03    8.864e-07    8.864e-04    7.728e-05   -6.891e-02  
  2.0000e-03    1.773e-06    8.864e-04    2.894e-05   -6.068e-02  
  3.0000e-03    2.659e-06    8.864e-04    1.443e-10   -4.834e-02  
  4.0000e-03    3.545e-06    8.863e-04   -2.894e-05   -2.894e-02  
  5.0000e-03    4.431e-06    8.861e-04   -7.728e-05   -2.894e-02  
  6.0000e-03    5.317e-06    8.859e-04   -1.380e-04   -4.834e-02  
  7.0000e-03    6.202e-06    8.857e-04   -2.069e-04   -6.068e-02  
  8.0000e-03    7.087e-06    8.853e-04   -2.816e-04   -6.891e-02  
  9.0000e-03    7.971e-06    8.849e-04   -3.603e-04   -7.471e-02  
  1.0000e-02    8.855e-06    8.843e-04   -4.419e-04   -7.877e-02  
  1.1000e-02    9.738e-06    8.837e-04   -5.251e-04   -8.152e-02  
  1.2000e-02    1.062e-05    8.830e-04   -6.091e-04   -8.320e-02  
  1.3000e-02    1.150e-05    8.822e-04   -6.932e-04   -8.401e-02  
  1.4000e-02    1.238e-05    8.814e-04   -7.767e-04   -8.410e-02  
  1.5000e-02    1.326e-05    8.804e-04   -8.591e-04   -8.352e-02  
  1.6000e-02    1.414e-05    8.794e-04   -9.400e-04   -8.244e-02  
  1.7000e-02    1.502e-05    8.783e-04   -1.019e-03   -8.085e-02  
  1.8000e-02    1.589e-05    8.772e-04   -1.095e-03   -7.886e-02  
  1.9000e-02    1.677e-05    8.759e-04   -1.169e-03   -7.653e-02  
  2.0000e-02    1.764e-05    8.746e-04   -1.240e-03   -7.386e-02  
  2.1000e-02    1.851e-05    8.732e-04   -1.308e-03   -7.093e-02  
  2.2000e-02    1.938e-05    8.718e-04   -1.372e-03   -6.777e-02  
  2.3000e-02    2.025e-05    8.703e-04   -1.433e-03   -6.443e-02  
  2.4000e-02    2.112e-05    8.688e-04   -1.491e-03   -6.090e-02  
  2.5000e-02    2.198e-05    8.672e-04   -1.544e-03   -5.723e-02  
  2.6000e-02    2.285e-05    8.655e-04   -1.594e-03   -5.347e-02  
  2.7000e-02    2.371e-05    8.639e-04   -1.639e-03   -4.961e-02  
  2.8000e-02    2.457e-05    8.621e-04   -1.681e-03   -4.572e-02  
  2.9000e-02    2.543e-05    8.604e-04   -1.719e-03   -4.172e-02  
  3.0000e-02    2.629e-05    8.586e-04   -1.753e-03   -3.776e-02  
  3.1000e-02    2.714e-05    8.568e-04   -1.782e-03   -3.376e-02  
  3.2000e-02    2.799e-05    8.550e-04   -1.808e-03   -2.981e-02  
  3.3000e-02    2.885e-05    8.531e-04   -1.830e-03   -2.586e-02  
  3.4000e-02    2.969e-05    8.513e-04   -1.848e-03   -2.197e-02  
  3.5000e-02    3.054e-05    8.494e-04   -1.863e-03   -1.811e-02  
  3.6000e-02    3.139e-05    8.475e-04   -1.873e-03   -1.437e-02  
  3.7000e-02    3.223e-05    8.456e-04   -1.880e-03   -1.067e-02  
  3.8000e-02    3.307e-05    8.437e-04   -1.884e-03   -7.059e-03  
  3.9000e-02    3.391e-05    8.419e-04   -1.884e-03   -3.539e-03  
  4.0000e-02    3.475e-05    8.400e-04   -1.881e-03   -1.990e-04  
  4.1000e-02    3.559e-05    8.381e-04   -1.875e-03    3.162e-03  
  4.2000e-02    3.642e-05    8.363e-04   -1.865e-03    6.281e-03  
  4.3000e-02    3.726e-05    8.344e-04   -1.853e-03    9.358e-03  
  4.4000e-02    3.809e-05    8.326e-04   -1.838e-03    1.227e-02  
  4.5000e-02    3.891e-05    8.308e-04   -1.820e-03    1.503e-02  
  4.6000e-02    3.974e-05    8.290e-04   -1.800e-03    1.771e-02  
  4.7000e-02    4.057e-05    8.273e-04   -1.777e-03    2.027e-02  
  4.8000e-02    4.139e-05    8.255e-04   -1.753e-03    2.262e-02  
  4.9000e-02    4.221e-05    8.239e-04   -1.726e-03    2.486e-02  
  5.0000e-02    4.303e-05    8.222e-04   -1.697e-03    2.701e-02  
  5.1000e-02    4.385e-05    8.206e-04   -1.666e-03    2.898e-02  
  5.2000e-02    4.467e-05    8.190e-04   -1.633e-03    3.084e-02  
  5.3000e-02    4.549e-05    8.174e-04   -1.599e-03    3.254e-02  
  5.4000e-02    4.630e-05    8.159e-04   -1.563e-03    3.418e-02  
  5.5000e-02    4.711e-05    8.144e-04   -1.526e-03    3.558e-02  
  5.6000e-02    4.793e-05    8.129e-04   -1.488e-03    3.698e-02  
  5.7000e-02    4.874e-05    8.115e-04   -1.449e-03    3.816e-02  
  5.8000e-02    4.954e-05    8.102e-04   -1.409e-03    3.929e-02  
  5.9000e-02    5.035e-05    8.088e-04   -1.368e-03    4.027e-02  
  6.0000e-02    5.116e-05    8.075e-04   -1.326e-03    4.115e-02  
  6.1000e-02    5.196e-05    8.063e-04   -1.283e-03    4.193e-02  
  6.2000e-02    5.277e-05    8.051e-04   -1.240e-03    4.260e-02  
  6.3000e-02    5.357e-05    8.040e-04   -1.196e-03    4.322e-02  
  6.4000e-02    5.437e-05    8.028e-04   -1.152e-03    4.365e-02  
  6.5000e-02    5.517e-05    8.018e-04   -1.108e-03    4.408e-02  
  6.6000e-02    5.597e-05    8.008e-04   -1.063e-03    4.437e-02  
  6.7000e-02    5.677e-05    7.998e-04   -1.018e-03    4.462e-02  
  6.8000e-02    5.757e-05    7.989e-04   -9.735e-04    4.479e-02  
  6.9000e-02    5.837e-05    7.980e-04   -9.286e-04    4.485e-02  
  7.0000e-02    5.916e-05    7.971e-04   -8.838e-04    4.491e-02  
  7.1000e-02    5.996e-05    7.963e-04   -8.390e-04    4.478e-02  
  7.2000e-02    6.075e-05    7.956e-04   -7.945e-04    4.481e-02  
  7.3000e-02    6.155e-05    7.949e-04   -7.501e-04    4.452e-02  
  7.4000e-02    6.234e-05    7.942e-04   -7.060e-04    4.437e-02  
  7.5000e-02    6.313e-05    7.936e-04   -6.621e-04    4.410e-02  
  7.6000e-02    6.393e-05    7.930e-04   -6.186e-04    4.385e-02  
  7.7000e-02    6.472e-05    7.925e-04   -5.757e-04    4.351e-02  
  7.8000e-02    6.551e-05    7.920e-04   -5.329e-04    4.297e-02  
  7.9000e-02    6.630e-05    7.916e-04   -4.907e-04    4.276e-02  
  8.0000e-02    6.709e-05    7.912e-04   -4.489e-04    4.223e-02  
  8.1000e-02    6.788e-05    7.908e-04   -4.076e-04    4.175e-02  
  8.2000e-02    6.867e-05    7.905e-04   -3.669e-04    4.131e-02  
  8.3000e-02    6.946e-05    7.902e-04   -3.266e-04    4.070e-02  
  8.4000e-02    7.025e-05    7.899e-04   -2.870e-04    4.027e-02  
  8.5000e-02    7.104e-05    7.897e-04   -2.479e-04    3.966e-02  
  8.6000e-02    7.183e-05    7.895e-04   -2.094e-04    3.909e-02  
  8.7000e-02    7.262e-05    7.894e-04   -1.714e-04    3.848e-02  
  8.8000e-02    7.341e-05    7.893e-04   -1.342e-04    3.797e-02  
  8.9000e-02    7.420e-05    7.893e-04   -9.740e-05    3.725e-02  
  9.0000e-02    7.499e-05    7.892e-04   -6.133e-05    3.676e-02  
  9.1000e-02    7.578e-05    7.892e-04   -2.589e-05    3.607e-02  
  9.2000e-02    7.657e-05    7.893e-04    8.995e-06    3.544e-02  
  9.3000e-02    7.736e-05    7.894e-04    4.313e-05    3.489e-02  
  9.4000e-02    7.815e-05    7.895e-04    7.675e-05    3.413e-02  
  9.5000e-02    7.894e-05    7.896e-04    1.097e-04    3.362e-02  
  9.6000e-02    7.973e-05    7.898e-04    1.420e-04    3.297e-02  
  9.7000e-02    8.052e-05    7.900e-04    1.737e-04    3.227e-02  
  9.8000e-02    8.131e-05    7.902e-04    2.048e-04    3.175e-02  
  9.9000e-02    8.210e-05    7.905e-04    2.353e-04    3.104e-02  
    0.10000     8.289e-05    7.908e-04    2.651e-04    3.050e-02  
y
x

        volt    param      
                    gx4    
   -0.10000    -7.702e-02  
 -9.9000e-02    -28.3431   
 -9.8000e-02   -4.902e+03  
 -9.7000e-02   -4.925e+05  
 -9.6000e-02   -1.031e+08  
 -9.5000e-02    3.128e+08  
 -9.4000e-02   -3.143e+08  
 -9.3000e-02    1.051e+08  
 -9.2000e-02      0.6821   
 -9.1000e-02      0.5826   
 -9.0000e-02      0.5969   
 -8.9000e-02      0.5684   
 -8.8000e-02      0.7105   
 -8.7000e-02      0.6111   
 -8.6000e-02      0.5969   
 -8.5000e-02      0.6111   
 -8.4000e-02      0.6821   
 -8.3000e-02      0.5684   
 -8.2000e-02      0.7248   
 -8.1000e-02      0.5116   
 -8.0000e-02      0.6537   
 -7.9000e-02      0.6537   
 -7.8000e-02      0.5684   
 -7.7000e-02      0.5826   
 -7.6000e-02      0.5826   
 -7.5000e-02      0.6395   
 -7.4000e-02      0.4690   
 -7.3000e-02      0.5684   
 -7.2000e-02      0.5542   
 -7.1000e-02      0.3979   
 -7.0000e-02      0.5826   
 -6.9000e-02      0.3979   
 -6.8000e-02      0.3837   
 -6.7000e-02      0.3695   
 -6.6000e-02      0.4263   
 -6.5000e-02      0.1847   
 -6.4000e-02      0.3411   
 -6.3000e-02      0.2274   
 -6.2000e-02    2.842e-02  
 -6.1000e-02      0.2132   
 -6.0000e-02    7.105e-02  
 -5.9000e-02     -0.1492   
 -5.8000e-02    1.421e-02  
 -5.7000e-02     -0.1776   
 -5.6000e-02     -0.2416   
 -5.5000e-02     -0.2984   
 -5.4000e-02     -0.4405   
 -5.3000e-02     -0.4192   
 -5.2000e-02     -0.6395   
 -5.1000e-02     -0.6324   
 -5.0000e-02     -0.8171   
 -4.9000e-02     -0.8242   
 -4.8000e-02     -1.0445   
 -4.7000e-02     -1.0942   
 -4.6000e-02     -1.1937   
 -4.5000e-02     -1.3785   
 -4.4000e-02     -1.4353   
 -4.3000e-02     -1.6200   
 -4.2000e-02     -1.6982   
 -4.1000e-02     -1.8616   
 -4.0000e-02     -1.9824   
 -3.9000e-02     -2.1245   
 -3.8000e-02     -2.2382   
 -3.7000e-02     -2.4301   
 -3.6000e-02     -2.4869   
 -3.5000e-02     -2.6361   
 -3.4000e-02     -2.8564   
 -3.3000e-02     -2.8564   
 -3.2000e-02     -3.0838   
 -3.1000e-02     -3.1903   
 -3.0000e-02     -3.2188   
 -2.9000e-02     -3.4390   
 -2.8000e-02     -3.5101   
 -2.7000e-02     -3.6025   
 -2.6000e-02     -3.6771   
 -2.5000e-02     -3.7801   
 -2.4000e-02     -3.8298   
 -2.3000e-02     -3.9115   
 -2.2000e-02     -3.9257   
 -2.1000e-02     -3.9755   
 -2.0000e-02     -4.0004   
 -1.9000e-02     -3.9471   
 -1.8000e-02     -3.9826   
 -1.7000e-02     -3.9080   
 -1.6000e-02     -3.8654   
 -1.5000e-02     -3.7588   
 -1.4000e-02     -3.6593   
 -1.3000e-02     -3.5350   
 -1.2000e-02     -3.3307   
 -1.1000e-02     -3.1992   
 -1.0000e-02     -2.8919   
 -9.0000e-03     -2.6787   
 -8.0000e-03     -2.3306   
 -7.0000e-03     -1.9931   
 -6.0000e-03     -1.5810   
 -5.0000e-03     -1.0978   
 -4.0000e-03     -0.5533   
 -3.0000e-03    6.306e-02  
 -2.0000e-03      0.8233   
 -1.0000e-03      1.6795   
    0.            2.7476   
  1.0000e-03      4.0656   
  2.0000e-03      5.7911   
  3.0000e-03      8.2352   
  4.0000e-03     12.3421   
  5.0000e-03     19.3968   
  6.0000e-03   -6.551e-04  
  7.0000e-03    -19.3949   
  8.0000e-03    -12.3449   
  9.0000e-03     -8.2334   
  1.0000e-02     -5.7914   
  1.1000e-02     -4.0643   
  1.2000e-02     -2.7480   
  1.3000e-02     -1.6849   
  1.4000e-02     -0.8118   
  1.5000e-02   -8.171e-02  
  1.6000e-02      0.5773   
  1.7000e-02      1.0765   
  1.8000e-02      1.5969   
  1.9000e-02      1.9824   
  2.0000e-02      2.3324   
  2.1000e-02      2.6716   
  2.2000e-02      2.9257   
  2.3000e-02      3.1601   
  2.4000e-02      3.3449   
  2.5000e-02      3.5314   
  2.6000e-02      3.6628   
  2.7000e-02      3.7659   
  2.8000e-02      3.8618   
  2.9000e-02      3.8902   
  3.0000e-02      3.9968   
  3.1000e-02      3.9577   
  3.2000e-02      3.9968   
  3.3000e-02      3.9506   
  3.4000e-02      3.9542   
  3.5000e-02      3.8867   
  3.6000e-02      3.8654   
  3.7000e-02      3.7410   
  3.8000e-02      3.6984   
  3.9000e-02      3.6096   
  4.0000e-02      3.5207   
  4.1000e-02      3.3396   
  4.2000e-02      3.3609   
  4.3000e-02      3.1193   
  4.4000e-02      3.0767   
  4.5000e-02      2.9132   
  4.6000e-02      2.7569   
  4.7000e-02      2.6787   
  4.8000e-02      2.5651   
  4.9000e-02      2.3448   
  5.0000e-02      2.2453   
  5.1000e-02      2.1458   
  5.2000e-02      1.9753   
  5.3000e-02      1.8616   
  5.4000e-02      1.6911   
  5.5000e-02      1.6485   
  5.6000e-02      1.3927   
  5.7000e-02      1.4069   
  5.8000e-02      1.1795   
  5.9000e-02      1.1298   
  6.0000e-02      0.9805   
  6.1000e-02      0.8811   
  6.2000e-02      0.7745   
  6.3000e-02      0.6679   
  6.4000e-02      0.6253   
  6.5000e-02      0.4263   
  6.6000e-02      0.4334   
  6.7000e-02      0.2842   
  6.8000e-02      0.2558   
  6.9000e-02      0.1634   
  7.0000e-02    6.395e-02  
  7.1000e-02    5.684e-02  
  7.2000e-02     -0.1279   
  7.3000e-02    2.842e-02  
  7.4000e-02     -0.2842   
  7.5000e-02     -0.1563   
  7.6000e-02     -0.2700   
  7.7000e-02     -0.2416   
  7.8000e-02     -0.3411   
  7.9000e-02     -0.5400   
  8.0000e-02     -0.2132   
  8.1000e-02     -0.5258   
  8.2000e-02     -0.4832   
  8.3000e-02     -0.4405   
  8.4000e-02     -0.6111   
  8.5000e-02     -0.4263   
  8.6000e-02     -0.6111   
  8.7000e-02     -0.5684   
  8.8000e-02     -0.6111   
[...]
 -8.2000e-02   -1.631e-04    1.839e-03    4.423e-03   -2.743e-03  
 -8.1000e-02   -1.612e-04    1.844e-03    4.418e-03   -3.851e-03  
 -8.0000e-02   -1.594e-04    1.848e-03    4.412e-03   -4.917e-03  
 -7.9000e-02   -1.575e-04    1.852e-03    4.405e-03   -5.898e-03  
 -7.8000e-02   -1.556e-04    1.857e-03    4.397e-03   -7.120e-03  
 -7.7000e-02   -1.538e-04    1.861e-03    4.387e-03   -8.214e-03  
 -7.6000e-02   -1.519e-04    1.866e-03    4.377e-03   -9.294e-03  
 -7.5000e-02   -1.500e-04    1.870e-03    4.365e-03   -1.054e-02  
 -7.4000e-02   -1.481e-04    1.874e-03    4.352e-03   -1.170e-02  
 -7.3000e-02   -1.463e-04    1.879e-03    4.338e-03   -1.286e-02  
 -7.2000e-02   -1.444e-04    1.883e-03    4.323e-03   -1.415e-02  
 -7.1000e-02   -1.425e-04    1.887e-03    4.306e-03   -1.523e-02  
 -7.0000e-02   -1.406e-04    1.891e-03    4.288e-03   -1.670e-02  
 -6.9000e-02   -1.387e-04    1.896e-03    4.269e-03   -1.781e-02  
 -6.8000e-02   -1.368e-04    1.900e-03    4.249e-03   -1.913e-02  
 -6.7000e-02   -1.349e-04    1.904e-03    4.227e-03   -2.049e-02  
 -6.6000e-02   -1.330e-04    1.908e-03    4.204e-03   -2.169e-02  
 -6.5000e-02   -1.310e-04    1.912e-03    4.180e-03   -2.312e-02  
 -6.4000e-02   -1.291e-04    1.917e-03    4.154e-03   -2.441e-02  
 -6.3000e-02   -1.272e-04    1.921e-03    4.127e-03   -2.578e-02  
 -6.2000e-02   -1.253e-04    1.925e-03    4.098e-03   -2.706e-02  
 -6.1000e-02   -1.233e-04    1.929e-03    4.068e-03   -2.859e-02  
 -6.0000e-02   -1.214e-04    1.933e-03    4.037e-03   -2.989e-02  
 -5.9000e-02   -1.195e-04    1.937e-03    4.004e-03   -3.123e-02  
 -5.8000e-02   -1.175e-04    1.941e-03    3.970e-03   -3.273e-02  
 -5.7000e-02   -1.156e-04    1.945e-03    3.935e-03   -3.406e-02  
 -5.6000e-02   -1.136e-04    1.948e-03    3.898e-03   -3.551e-02  
 -5.5000e-02   -1.117e-04    1.952e-03    3.859e-03   -3.694e-02  
 -5.4000e-02   -1.097e-04    1.956e-03    3.820e-03   -3.832e-02  
 -5.3000e-02   -1.077e-04    1.960e-03    3.778e-03   -3.975e-02  
 -5.2000e-02   -1.058e-04    1.963e-03    3.736e-03   -4.124e-02  
 -5.1000e-02   -1.038e-04    1.967e-03    3.692e-03   -4.259e-02  
 -5.0000e-02   -1.018e-04    1.971e-03    3.646e-03   -4.406e-02  
 -4.9000e-02   -9.985e-05    1.974e-03    3.599e-03   -4.545e-02  
 -4.8000e-02   -9.787e-05    1.978e-03    3.551e-03   -4.691e-02  
 -4.7000e-02   -9.588e-05    1.981e-03    3.501e-03   -4.828e-02  
 -4.6000e-02   -9.389e-05    1.985e-03    3.450e-03   -4.973e-02  
 -4.5000e-02   -9.190e-05    1.988e-03    3.398e-03   -5.111e-02  
 -4.4000e-02   -8.991e-05    1.991e-03    3.344e-03   -5.252e-02  
 -4.3000e-02   -8.791e-05    1.994e-03    3.289e-03   -5.387e-02  
 -4.2000e-02   -8.591e-05    1.998e-03    3.232e-03   -5.527e-02  
 -4.1000e-02   -8.391e-05    2.001e-03    3.174e-03   -5.662e-02  
 -4.0000e-02   -8.190e-05    2.004e-03    3.115e-03   -5.796e-02  
 -3.9000e-02   -7.989e-05    2.007e-03    3.054e-03   -5.925e-02  
 -3.8000e-02   -7.788e-05    2.010e-03    2.992e-03   -6.060e-02  
 -3.7000e-02   -7.586e-05    2.013e-03    2.929e-03   -6.185e-02  
 -3.6000e-02   -7.384e-05    2.015e-03    2.865e-03   -6.312e-02  
 -3.5000e-02   -7.182e-05    2.018e-03    2.799e-03   -6.438e-02  
 -3.4000e-02   -6.980e-05    2.021e-03    2.733e-03   -6.553e-02  
 -3.3000e-02   -6.777e-05    2.023e-03    2.665e-03   -6.677e-02  
 -3.2000e-02   -6.575e-05    2.026e-03    2.596e-03   -6.791e-02  
 -3.1000e-02   -6.371e-05    2.028e-03    2.526e-03   -6.899e-02  
 -3.0000e-02   -6.168e-05    2.031e-03    2.454e-03   -7.012e-02  
 -2.9000e-02   -5.965e-05    2.033e-03    2.382e-03   -7.112e-02  
 -2.8000e-02   -5.761e-05    2.035e-03    2.309e-03   -7.216e-02  
 -2.7000e-02   -5.557e-05    2.037e-03    2.235e-03   -7.310e-02  
 -2.6000e-02   -5.353e-05    2.040e-03    2.160e-03   -7.401e-02  
 -2.5000e-02   -5.148e-05    2.042e-03    2.085e-03   -7.491e-02  
 -2.4000e-02   -4.944e-05    2.043e-03    2.008e-03   -7.572e-02  
 -2.3000e-02   -4.739e-05    2.045e-03    1.931e-03   -7.648e-02  
 -2.2000e-02   -4.534e-05    2.047e-03    1.853e-03   -7.718e-02  
 -2.1000e-02   -4.329e-05    2.049e-03    1.775e-03   -7.786e-02  
 -2.0000e-02   -4.124e-05    2.050e-03    1.696e-03   -7.843e-02  
 -1.9000e-02   -3.919e-05    2.052e-03    1.616e-03   -7.897e-02  
 -1.8000e-02   -3.713e-05    2.053e-03    1.536e-03   -7.942e-02  
 -1.7000e-02   -3.508e-05    2.055e-03    1.456e-03   -7.978e-02  
 -1.6000e-02   -3.302e-05    2.056e-03    1.376e-03   -8.010e-02  
 -1.5000e-02   -3.096e-05    2.057e-03    1.296e-03   -8.032e-02  
 -1.4000e-02   -2.890e-05    2.058e-03    1.215e-03   -8.043e-02  
 -1.3000e-02   -2.684e-05    2.060e-03    1.135e-03   -8.048e-02  
 -1.2000e-02   -2.478e-05    2.060e-03    1.054e-03   -8.041e-02  
 -1.1000e-02   -2.272e-05    2.061e-03    9.745e-04   -8.022e-02  
 -1.0000e-02   -2.065e-05    2.062e-03    8.950e-04   -7.996e-02  
 -9.0000e-03   -1.859e-05    2.063e-03    8.160e-04   -7.951e-02  
 -8.0000e-03   -1.653e-05    2.064e-03    7.377e-04   -7.898e-02  
 -7.0000e-03   -1.446e-05    2.064e-03    6.603e-04   -7.826e-02  
 -6.0000e-03   -1.240e-05    2.065e-03    5.840e-04   -7.740e-02  
 -5.0000e-03   -1.033e-05    2.065e-03    5.089e-04   -7.634e-02  
 -4.0000e-03   -8.265e-06    2.065e-03    4.354e-04   -7.508e-02  
 -3.0000e-03   -6.199e-06    2.066e-03    3.635e-04   -7.358e-02  
 -2.0000e-03   -4.133e-06    2.066e-03    2.939e-04   -7.180e-02  
 -1.0000e-03   -2.066e-06    2.066e-03    2.267e-04   -6.968e-02  
    0.          3.887e-14    2.066e-03    1.626e-04   -6.716e-02  
  1.0000e-03    2.066e-06    2.066e-03    1.024e-04   -6.408e-02  
  2.0000e-03    4.133e-06    2.066e-03    4.741e-05   -6.022e-02  
  3.0000e-03    6.199e-06    2.066e-03    3.035e-10   -5.499e-02  
  4.0000e-03    8.265e-06    2.066e-03   -4.741e-05   -4.741e-02  
  5.0000e-03    1.033e-05    2.066e-03   -1.024e-04   -4.741e-02  
  6.0000e-03    1.240e-05    2.066e-03   -1.626e-04   -5.499e-02  
  7.0000e-03    1.446e-05    2.065e-03   -2.267e-04   -6.022e-02  
  8.0000e-03    1.653e-05    2.065e-03   -2.939e-04   -6.408e-02  
  9.0000e-03    1.859e-05    2.065e-03   -3.636e-04   -6.716e-02  
  1.0000e-02    2.065e-05    2.064e-03   -4.354e-04   -6.969e-02  
  1.1000e-02    2.272e-05    2.064e-03   -5.089e-04   -7.180e-02  
  1.2000e-02    2.478e-05    2.063e-03   -5.840e-04   -7.358e-02  
  1.3000e-02    2.684e-05    2.062e-03   -6.603e-04   -7.508e-02  
  1.4000e-02    2.890e-05    2.061e-03   -7.377e-04   -7.633e-02  
  1.5000e-02    3.096e-05    2.060e-03   -8.160e-04   -7.740e-02  
  1.6000e-02    3.302e-05    2.060e-03   -8.950e-04   -7.826e-02  
  1.7000e-02    3.508e-05    2.058e-03   -9.745e-04   -7.897e-02  
  1.8000e-02    3.713e-05    2.057e-03   -1.054e-03   -7.952e-02  
  1.9000e-02    3.919e-05    2.056e-03   -1.135e-03   -7.994e-02  
  2.0000e-02    4.124e-05    2.055e-03   -1.215e-03   -8.022e-02  
  2.1000e-02    4.329e-05    2.053e-03   -1.296e-03   -8.041e-02  
  2.2000e-02    4.534e-05    2.052e-03   -1.376e-03   -8.047e-02  
  2.3000e-02    4.739e-05    2.050e-03   -1.456e-03   -8.044e-02  
  2.4000e-02    4.944e-05    2.049e-03   -1.536e-03   -8.031e-02  
  2.5000e-02    5.148e-05    2.047e-03   -1.616e-03   -8.010e-02  
  2.6000e-02    5.353e-05    2.045e-03   -1.696e-03   -7.979e-02  
  2.7000e-02    5.557e-05    2.043e-03   -1.775e-03   -7.941e-02  
  2.8000e-02    5.761e-05    2.042e-03   -1.853e-03   -7.897e-02  
  2.9000e-02    5.965e-05    2.040e-03   -1.931e-03   -7.844e-02  
  3.0000e-02    6.168e-05    2.037e-03   -2.008e-03   -7.784e-02  
  3.1000e-02    6.371e-05    2.035e-03   -2.085e-03   -7.721e-02  
  3.2000e-02    6.575e-05    2.033e-03   -2.160e-03   -7.648e-02  
  3.3000e-02    6.777e-05    2.031e-03   -2.235e-03   -7.574e-02  
  3.4000e-02    6.980e-05    2.028e-03   -2.309e-03   -7.487e-02  
  3.5000e-02    7.182e-05    2.026e-03   -2.382e-03   -7.406e-02  
  3.6000e-02    7.384e-05    2.023e-03   -2.454e-03   -7.308e-02  
  3.7000e-02    7.586e-05    2.021e-03   -2.526e-03   -7.216e-02  
  3.8000e-02    7.788e-05    2.018e-03   -2.596e-03   -7.115e-02  
  3.9000e-02    7.989e-05    2.015e-03   -2.665e-03   -7.008e-02  
  4.0000e-02    8.190e-05    2.013e-03   -2.733e-03   -6.904e-02  
  4.1000e-02    8.391e-05    2.010e-03   -2.799e-03   -6.787e-02  
  4.2000e-02    8.591e-05    2.007e-03   -2.865e-03   -6.674e-02  
  4.3000e-02    8.791e-05    2.004e-03   -2.929e-03   -6.560e-02  
  4.4000e-02    8.991e-05    2.001e-03   -2.992e-03   -6.432e-02  
  4.5000e-02    9.190e-05    1.998e-03   -3.054e-03   -6.315e-02  
  4.6000e-02    9.389e-05    1.994e-03   -3.115e-03   -6.185e-02  
  4.7000e-02    9.588e-05    1.991e-03   -3.174e-03   -6.057e-02  
  4.8000e-02    9.787e-05    1.988e-03   -3.232e-03   -5.929e-02  
  4.9000e-02    9.985e-05    1.985e-03   -3.289e-03   -5.794e-02  
  5.0000e-02    1.018e-04    1.981e-03   -3.344e-03   -5.663e-02  
  5.1000e-02    1.038e-04    1.978e-03   -3.398e-03   -5.524e-02  
  5.2000e-02    1.058e-04    1.974e-03   -3.450e-03   -5.389e-02  
  5.3000e-02    1.077e-04    1.971e-03   -3.501e-03   -5.252e-02  
  5.4000e-02    1.097e-04    1.967e-03   -3.551e-03   -5.111e-02  
  5.5000e-02    1.117e-04    1.963e-03   -3.599e-03   -4.972e-02  
  5.6000e-02    1.136e-04    1.960e-03   -3.646e-03   -4.828e-02  
  5.7000e-02    1.156e-04    1.956e-03   -3.692e-03   -4.692e-02  
  5.8000e-02    1.175e-04    1.952e-03   -3.736e-03   -4.544e-02  
  5.9000e-02    1.195e-04    1.948e-03   -3.778e-03   -4.407e-02  
  6.0000e-02    1.214e-04    1.945e-03   -3.820e-03   -4.260e-02  
  6.1000e-02    1.233e-04    1.941e-03   -3.859e-03   -4.119e-02  
  6.2000e-02    1.253e-04    1.937e-03   -3.898e-03   -3.978e-02  
  6.3000e-02    1.272e-04    1.933e-03   -3.935e-03   -3.833e-02  
  6.4000e-02    1.291e-04    1.929e-03   -3.970e-03   -3.691e-02  
  6.5000e-02    1.310e-04    1.925e-03   -4.004e-03   -3.554e-02  
  6.6000e-02    1.330e-04    1.921e-03   -4.037e-03   -3.405e-02  
  6.7000e-02    1.349e-04    1.917e-03   -4.068e-03   -3.271e-02  
  6.8000e-02    1.368e-04    1.912e-03   -4.098e-03   -3.127e-02  
  6.9000e-02    1.387e-04    1.908e-03   -4.127e-03   -2.987e-02  
  7.0000e-02    1.406e-04    1.904e-03   -4.154e-03   -2.851e-02  
  7.1000e-02    1.425e-04    1.900e-03   -4.179e-03   -2.716e-02  
  7.2000e-02    1.444e-04    1.896e-03   -4.204e-03   -2.568e-02  
  7.3000e-02    1.463e-04    1.891e-03   -4.227e-03   -2.456e-02  
  7.4000e-02    1.481e-04    1.887e-03   -4.249e-03   -2.296e-02  
  7.5000e-02    1.500e-04    1.883e-03   -4.269e-03   -2.181e-02  
  7.6000e-02    1.519e-04    1.879e-03   -4.288e-03   -2.042e-02  
  7.7000e-02    1.538e-04    1.874e-03   -4.306e-03   -1.910e-02  
  7.8000e-02    1.556e-04    1.870e-03   -4.323e-03   -1.791e-02  
  7.9000e-02    1.575e-04    1.866e-03   -4.338e-03   -1.657e-02  
  8.0000e-02    1.594e-04    1.861e-03   -4.352e-03   -1.536e-02  
  8.1000e-02    1.612e-04    1.857e-03   -4.365e-03   -1.408e-02  
  8.2000e-02    1.631e-04    1.852e-03   -4.377e-03   -1.288e-02  
  8.3000e-02    1.649e-04    1.848e-03   -4.387e-03   -1.171e-02  
  8.4000e-02    1.667e-04    1.844e-03   -4.397e-03   -1.052e-02  
  8.5000e-02    1.686e-04    1.839e-03   -4.405e-03   -9.308e-03  
  8.6000e-02    1.704e-04    1.835e-03   -4.412e-03   -8.214e-03  
  8.7000e-02    1.722e-04    1.830e-03   -4.418e-03   -7.105e-03  
  8.8000e-02    1.740e-04    1.826e-03   -4.423e-03   -5.912e-03  
  8.9000e-02    1.759e-04    1.822e-03   -4.427e-03   -4.960e-03  
  9.0000e-02    1.777e-04    1.817e-03   -4.429e-03   -3.766e-03  
  9.1000e-02    1.795e-04    1.813e-03   -4.431e-03   -2.842e-03  
  9.2000e-02    1.813e-04    1.808e-03   -4.432e-03   -1.677e-03  
  9.3000e-02    1.831e-04    1.804e-03   -4.432e-03   -7.958e-04  
  9.4000e-02    1.849e-04    1.799e-03   -4.431e-03    2.132e-04  
  9.5000e-02    1.867e-04    1.795e-03   -4.428e-03    1.180e-03  
  9.6000e-02    1.885e-04    1.791e-03   -4.425e-03    2.132e-03  
  9.7000e-02    1.902e-04    1.786e-03   -4.421e-03    3.013e-03  
  9.8000e-02    1.920e-04    1.782e-03   -4.417e-03    4.007e-03  
  9.9000e-02    1.938e-04    1.777e-03   -4.411e-03    4.718e-03  
    0.10000     1.956e-04    1.773e-03   -4.404e-03    5.727e-03  
y
x

        volt    param      
                    gx4    
   -0.10000      -0.2856   
 -9.9000e-02     -4.6886   
 -9.8000e-02   -1.090e+04  
 -9.7000e-02   -2.756e+06  
 -9.6000e-02   -3.339e+08  
 -9.5000e-02    1.019e+09  
 -9.4000e-02   -1.025e+09  
 -9.3000e-02    3.427e+08  
 -9.2000e-02     -0.7816   
 -9.1000e-02     -0.8100   
 -9.0000e-02     -0.8242   
 -8.9000e-02     -0.8669   
 -8.8000e-02     -0.7958   
 -8.7000e-02     -0.9948   
 -8.6000e-02     -0.8953   
 -8.5000e-02     -0.8953   
 -8.4000e-02     -0.9948   
 -8.3000e-02     -0.9521   
 -8.2000e-02     -1.0516   
 -8.1000e-02     -0.9521   
 -8.0000e-02     -1.1084   
 -7.9000e-02     -1.0658   
 -7.8000e-02     -0.9805   
 -7.7000e-02     -1.2221   
 -7.6000e-02     -1.0942   
 -7.5000e-02     -1.0800   
 -7.4000e-02     -1.2506   
 -7.3000e-02     -1.1511   
 -7.2000e-02     -1.1653   
 -7.1000e-02     -1.2932   
 -7.0000e-02     -1.0800   
 -6.9000e-02     -1.4637   
 -6.8000e-02     -1.1084   
 -6.7000e-02     -1.3216   
 -6.6000e-02     -1.3642   
 -6.5000e-02     -1.1937   
 -6.4000e-02     -1.4353   
 -6.3000e-02     -1.2932   
 -6.2000e-02     -1.3642   
 -6.1000e-02     -1.2790   
 -6.0000e-02     -1.5277   
 -5.9000e-02     -1.3003   
 -5.8000e-02     -1.3429   
 -5.7000e-02     -1.4992   
 -5.6000e-02     -1.3358   
 -5.5000e-02     -1.4424   
 -5.4000e-02     -1.4353   
 -5.3000e-02     -1.3785   
 -5.2000e-02     -1.4282   
 -5.1000e-02     -1.4921   
 -5.0000e-02     -1.3500   
 -4.9000e-02     -1.4708   
 -4.8000e-02     -1.3927   
 -4.7000e-02     -1.4566   
 -4.6000e-02     -1.3713   
 -4.5000e-02     -1.4495   
 -4.4000e-02     -1.3785   
 -4.3000e-02     -1.4069   
 -4.2000e-02     -1.3571   
 -4.1000e-02     -1.3927   
 -4.0000e-02     -1.3571   
 -3.9000e-02     -1.3358   
 -3.8000e-02     -1.2932   
 -3.7000e-02     -1.3500   
 -3.6000e-02     -1.2506   
 -3.5000e-02     -1.2719   
 -3.4000e-02     -1.2577   
 -3.3000e-02     -1.1440   
 -3.2000e-02     -1.2434   
 -3.1000e-02     -1.1369   
 -3.0000e-02     -1.0871   
 -2.9000e-02     -1.1227   
 -2.8000e-02     -1.0054   
 -2.7000e-02     -1.0409   
 -2.6000e-02     -0.9415   
 -2.5000e-02     -0.9095   
 -2.4000e-02     -0.8953   
 -2.3000e-02     -0.8100   
 -2.2000e-02     -0.7638   
 -2.1000e-02     -0.6999   
 -2.0000e-02     -0.6786   
 -1.9000e-02     -0.5649   
 -1.8000e-02     -0.5436   
 -1.7000e-02     -0.4476   
 -1.6000e-02     -0.3624   
 -1.5000e-02     -0.3162   
 -1.4000e-02     -0.2203   
 -1.3000e-02     -0.1137   
 -1.2000e-02   -4.796e-02  
 -1.1000e-02    7.105e-02  
 -1.0000e-02      0.1901   
 -9.0000e-03      0.2611   
 -8.0000e-03      0.4494   
 -7.0000e-03      0.5311   
 -6.0000e-03      0.7176   
 -5.0000e-03      0.8615   
 -4.0000e-03      1.0560   
 -3.0000e-03      1.2648   
 -2.0000e-03      1.4939   
 -1.0000e-03      1.7764   
    0.            2.1201   
  1.0000e-03      2.5220   
  2.0000e-03      3.0818   
  3.0000e-03      3.8649   
  4.0000e-03      5.2263   
  5.0000e-03      7.5769   
  6.0000e-03   -1.022e-03  
  7.0000e-03     -7.5751   
  8.0000e-03     -5.2271   
  9.0000e-03     -3.8668   
  1.0000e-02     -3.0758   
  1.1000e-02     -2.5309   
  1.2000e-02     -2.1108   
  1.3000e-02     -1.7808   
  1.4000e-02     -1.4992   
  1.5000e-02     -1.2523   
  1.6000e-02     -1.0685   
  1.7000e-02     -0.8562   
  1.8000e-02     -0.7088   
  1.9000e-02     -0.5560   
  2.0000e-02     -0.4192   
  2.1000e-02     -0.2807   
  2.2000e-02     -0.1901   
  2.3000e-02   -5.684e-02  
  2.4000e-02    3.197e-02  
  2.5000e-02      0.1315   
  2.6000e-02      0.2025   
  2.7000e-02      0.3162   
  2.8000e-02      0.3766   
  2.9000e-02      0.4441   
  3.0000e-02      0.5294   
  3.1000e-02      0.6004   
  3.2000e-02      0.6288   
  3.3000e-02      0.7319   
  3.4000e-02      0.7390   
  3.5000e-02      0.8704   
  3.6000e-02      0.8100   
  3.7000e-02      0.9734   
  3.8000e-02      0.9273   
  3.9000e-02      1.0090   
  4.0000e-02      1.0658   
  4.1000e-02      1.0374   
  4.2000e-02      1.1724   
  4.3000e-02      1.1298   
  4.4000e-02      1.1369   
  4.5000e-02      1.2861   
  4.6000e-02      1.1653   
  4.7000e-02      1.3003   
  4.8000e-02      1.2790   
  4.9000e-02      1.2790   
  5.0000e-02      1.3571   
  5.1000e-02      1.3074   
  5.2000e-02      1.3927   
  5.3000e-02      1.3429   
  5.4000e-02      1.3713   
  5.5000e-02      1.4140   
  5.6000e-02      1.3927   
  5.7000e-02      1.4353   
  5.8000e-02      1.3571   
  5.9000e-02      1.4850   
  6.0000e-02      1.3642   
  6.1000e-02      1.4708   
  6.2000e-02      1.4140   
  6.3000e-02      1.4140   
  6.4000e-02      1.4424   
  6.5000e-02      1.4282   
  6.6000e-02      1.3642   
  6.7000e-02      1.4921   
  6.8000e-02      1.3358   
  6.9000e-02      1.4424   
  7.0000e-02      1.3998   
  7.1000e-02      1.3571   
  7.2000e-02      1.3571   
  7.3000e-02      1.4779   
  7.4000e-02      1.1227   
  7.5000e-02      1.5916   
  7.6000e-02      1.1511   
  7.7000e-02      1.3927   
  7.8000e-02      1.3216   
  7.9000e-02      1.1937   
  8.0000e-02      1.3358   
  8.1000e-02      1.2079   
  8.2000e-02      1.2790   
  8.3000e-02      1.2079   
  8.4000e-02      1.1653   
  8.5000e-02      1.1937   
  8.6000e-02      1.2079   
  8.7000e-02      1.0942   
  8.8000e-02      1.1084   
  8.9000e-02      1.1937   
  9.0000e-02      0.9521   
  9.1000e-02      1.1937   
  9.2000e-02      0.9237   
  9.3000e-02      1.1653   
  9.4000e-02      0.8811   
  9.5000e-02      1.0090   
  9.6000e-02      0.9663   
  9.7000e-02      0.9521   
  9.8000e-02      0.8811   
  9.9000e-02      0.9948   
    0.10000       0.7105   
y
-----------------------------------------------

          ***** job concluded
1****** HSPICE -- G-2012.06 32-BIT (May 27 2012) RHEL32 ******                  
 ******  
 *sample netlist for bsim-mg

  ******  job statistics summary tnom=  25.000 temp=  25.000 *****
  
  
 ******  Machine Information  ******
 CPU:
 model name	: Intel(R) Xeon(R) CPU           X7350  @ 2.93GHz
 cpu MHz	: 2925.869
  
 OS:
 Linux version 2.6.18-348.4.1.el5 (mockbuild@x86-007.build.bos.redhat.com) (gcc version 4.1.2 20080704 (Red Hat 4.1.2-54)) #1 SMP Fri Mar 22 05:41:51 EDT 2013


  ******  HSPICE Threads Information  ******

  Command Line Threads Count :     1
  Available CPU Count        :     8
  Actual Threads Count       :     1


  ******  Circuit Statistics  ******
  # nodes       =       7 # elements   =       5
  # resistors   =       0 # capacitors =       0 # inductors   =       0
  # mutual_inds =       0 # vccs       =       0 # vcvs        =       1
  # cccs        =       0 # ccvs       =       0 # volt_srcs   =       3
  # curr_srcs   =       0 # diodes     =       0 # bjts        =       0
  # jfets       =       0 # mosfets    =       0 # U elements  =       0
  # T elements  =       0 # W elements =       0 # B elements  =       0
  # S elements  =       0 # P elements =       0 # va device   =       1
  # vector_srcs =       0 # N elements =       0


  ******  Runtime Statistics (seconds)  ******

  analysis           time    # points   tot. iter  conv.iter
  op point           0.00           1           0
  dc sweep           0.14        1206        2419
  readin             3.45
  errchk             0.05
  setup              0.00
  output             0.00


           peak memory used        117.16 megabytes
           total cpu time            3.64 seconds
           total elapsed time       14.26 seconds
           job started at     15:14:34 07/12/2013
           job ended   at     15:14:49 07/12/2013


 lic: Release hspice token(s) 
 lic: total license checkout elapse time:        0.21(s)
