 ****** HSPICE -- G-2012.06 32-BIT (May 27 2012) RHEL32 ******                  
  Copyright (C) 2012 Synopsys, Inc. All Rights Reserved.                        
  Unpublished-rights reserved under US copyright laws.
  This program is protected by law and is subject to the
  terms and conditions of the license agreement from Synopsys.
  Use of this program is your acceptance to be bound by the
  license agreement. HSPICE is the trademark of Synopsys, Inc.
  Input File: idvdnmos.sp                                                       
  Command line options: -hdlpath ../code -i idvdnmos.sp -o idvdnmos
 lic:  
 lic: FLEXlm: v10.8 
 lic: USER:   navidp               HOSTNAME: intelr900-1.EECS.Berkeley.EDU 
 lic: HOSTID: 0022197fa591         PID:      25048 
 lic: Using FLEXlm license file: 
 lic: 1701@sunv40z-1.eecs.berkeley.edu 
 lic: Checkout 1 hspice 
 lic: License/Maintenance for hspice will expire on 19-dec-2013/2013.03 
 lic: 3(in_use)/50(total) FLOATING license(s) on SERVER sunv40z-1.eecs.berkeley.
 lic:   
 Init: read install configuration file: /tools/synopsys/hspice/G-2012.06/hspice/meta.cfg
 **info** *pvaI* Module (bsimcmg): 4 unexpanded port, 0 init, 2075 behav, 47 contrib, 63/3242 expr(s)

 **info** *pvaI* Resizing DB size for v count = 1

 **info** *pvaI* Resizing DB size for v count = 2

 **info** *pvaI*        Has DIS (ST SB), 4 afCount

 **info** *pvaI*        0 const-G and 0 const-C, Has switch branch.

 **info** *pvaI* Module (bsimcmg): generated 0 flow node(s) during compilation.

 **info** *pvaI* #### Total 697 line-size(s), 63 expr(s), 47 contr(s), 0 init(s), 2075 behav(s), 4 port(s)

 Loading pVA library idvdnmos.pvadir/pvaRTL_linux.so...
1****** HSPICE -- G-2012.06 32-BIT (May 27 2012) RHEL32 ******                  
 ******  
 *sample netlist for bsim-mg

  ******  circuit name directory
 circuit number to circuit name directory
   number circuitname                     definition         multiplier
        0 main circuit
        1 x1.                             bsimcmg(va)        1.00 
 **info** *pvaI* Creating Verilog-A module 'bsimcmg' for X1

  
      
 *****************************************************************
 ******  option summary
 ******
 runlvl  = 3         bypass  = 2         
  Opening plot unit= 15
 file=idvdnmos.pa0                                                             

 ******  
 *sample netlist for bsim-mg

  ******  dc transfer curves tnom=  25.000 temp=  27.000 *****

   *** source        0:vgs =    0.            ***

x

        volt    param        param      
                    ids          gds    
    0.            0.           0.       
  1.0000e-02    1.267e-10      0.       
  2.0000e-02    2.156e-10    1.267e-08  
  3.0000e-02    2.780e-10    8.887e-09  
  4.0000e-02    3.218e-10    6.240e-09  
  5.0000e-02    3.530e-10    4.386e-09  
  6.0000e-02    3.759e-10    3.117e-09  
  7.0000e-02    3.937e-10    2.291e-09  
  8.0000e-02    4.082e-10    1.774e-09  
  9.0000e-02    4.206e-10    1.452e-09  
    0.10000     4.316e-10    1.245e-09  
    0.11000     4.417e-10    1.102e-09  
    0.12000     4.511e-10    1.006e-09  
    0.13000     4.600e-10    9.377e-10  
    0.14000     4.686e-10    8.924e-10  
    0.15000     4.770e-10    8.612e-10  
    0.16000     4.853e-10    8.428e-10  
    0.17000     4.936e-10    8.300e-10  
    0.18000     5.017e-10    8.229e-10  
    0.19000     5.099e-10    8.162e-10  
    0.20000     5.181e-10    8.224e-10  
    0.21000     5.264e-10    8.184e-10  
    0.22000     5.347e-10    8.257e-10  
    0.23000     5.430e-10    8.296e-10  
    0.24000     5.514e-10    8.315e-10  
    0.25000     5.599e-10    8.424e-10  
    0.26000     5.684e-10    8.466e-10  
    0.27000     5.770e-10    8.555e-10  
    0.28000     5.858e-10    8.599e-10  
    0.29000     5.946e-10    8.802e-10  
    0.30000     6.036e-10    8.784e-10  
    0.31000     6.125e-10    8.924e-10  
    0.32000     6.217e-10    8.949e-10  
    0.33000     6.309e-10    9.186e-10  
    0.34000     6.402e-10    9.207e-10  
    0.35000     6.496e-10    9.293e-10  
    0.36000     6.592e-10    9.446e-10  
    0.37000     6.689e-10    9.567e-10  
    0.38000     6.786e-10    9.680e-10  
    0.39000     6.885e-10    9.703e-10  
    0.40000     6.986e-10    9.947e-10  
    0.41000     7.088e-10    1.009e-09  
    0.42000     7.191e-10    1.019e-09  
    0.43000     7.295e-10    1.024e-09  
    0.44000     7.401e-10    1.047e-09  
    0.45000     7.508e-10    1.054e-09  
    0.46000     7.616e-10    1.072e-09  
    0.47000     7.727e-10    1.086e-09  
    0.48000     7.838e-10    1.107e-09  
    0.49000     7.951e-10    1.111e-09  
    0.50000     8.065e-10    1.128e-09  
    0.51000     8.182e-10    1.145e-09  
    0.52000     8.300e-10    1.170e-09  
    0.53000     8.418e-10    1.172e-09  
    0.54000     8.541e-10    1.186e-09  
    0.55000     8.662e-10    1.225e-09  
    0.56000     8.787e-10    1.218e-09  
    0.57000     8.913e-10    1.247e-09  
    0.58000     9.041e-10    1.264e-09  
    0.59000     9.170e-10    1.272e-09  
    0.60000     9.303e-10    1.297e-09  
    0.61000     9.435e-10    1.328e-09  
    0.62000     9.571e-10    1.320e-09  
    0.63000     9.708e-10    1.359e-09  
    0.64000     9.846e-10    1.365e-09  
    0.65000     9.987e-10    1.387e-09  
    0.66000     1.013e-09    1.405e-09  
    0.67000     1.027e-09    1.428e-09  
    0.68000     1.042e-09    1.448e-09  
    0.69000     1.057e-09    1.465e-09  
    0.70000     1.072e-09    1.486e-09  
    0.71000     1.087e-09    1.508e-09  
    0.72000     1.103e-09    1.526e-09  
    0.73000     1.118e-09    1.530e-09  
    0.74000     1.134e-09    1.565e-09  
    0.75000     1.150e-09    1.595e-09  
    0.76000     1.166e-09    1.589e-09  
    0.77000     1.183e-09    1.628e-09  
    0.78000     1.199e-09    1.645e-09  
    0.79000     1.216e-09    1.665e-09  
    0.80000     1.233e-09    1.683e-09  
    0.81000     1.251e-09    1.713e-09  
    0.82000     1.268e-09    1.720e-09  
    0.83000     1.286e-09    1.741e-09  
    0.84000     1.304e-09    1.783e-09  
    0.85000     1.322e-09    1.781e-09  
    0.86000     1.340e-09    1.812e-09  
    0.87000     1.359e-09    1.832e-09  
    0.88000     1.377e-09    1.843e-09  
    0.89000     1.396e-09    1.874e-09  
    0.90000     1.416e-09    1.896e-09  
    0.91000     1.435e-09    1.927e-09  
    0.92000     1.455e-09    1.928e-09  
    0.93000     1.474e-09    1.971e-09  
    0.94000     1.494e-09    1.970e-09  
    0.95000     1.515e-09    2.015e-09  
    0.96000     1.535e-09    2.014e-09  
    0.97000     1.556e-09    2.048e-09  
    0.98000     1.577e-09    2.070e-09  
    0.99000     1.598e-09    2.082e-09  
    1.00000     1.619e-09    2.116e-09  
y
-----------------------------------------------
 ******  
 *sample netlist for bsim-mg

  ******  dc transfer curves tnom=  25.000 temp=  27.000 *****

   *** source        0:vgs =    0.1000        ***

x

        volt    param        param      
                    ids          gds    
    0.         -6.710e-16      0.       
  1.0000e-02    4.522e-09   -1.619e-07  
  2.0000e-02    7.693e-09    4.522e-07  
  3.0000e-02    9.916e-09    3.171e-07  
  4.0000e-02    1.147e-08    2.223e-07  
  5.0000e-02    1.257e-08    1.556e-07  
  6.0000e-02    1.337e-08    1.097e-07  
  7.0000e-02    1.398e-08    7.976e-08  
  8.0000e-02    1.447e-08    6.093e-08  
  9.0000e-02    1.488e-08    4.908e-08  
    0.10000     1.524e-08    4.127e-08  
    0.11000     1.556e-08    3.591e-08  
    0.12000     1.586e-08    3.216e-08  
    0.13000     1.613e-08    2.952e-08  
    0.14000     1.640e-08    2.766e-08  
    0.15000     1.665e-08    2.636e-08  
    0.16000     1.690e-08    2.543e-08  
    0.17000     1.714e-08    2.478e-08  
    0.18000     1.738e-08    2.433e-08  
    0.19000     1.762e-08    2.402e-08  
    0.20000     1.786e-08    2.382e-08  
    0.21000     1.809e-08    2.370e-08  
    0.22000     1.833e-08    2.363e-08  
    0.23000     1.857e-08    2.362e-08  
    0.24000     1.880e-08    2.364e-08  
    0.25000     1.904e-08    2.368e-08  
    0.26000     1.928e-08    2.376e-08  
    0.27000     1.952e-08    2.386e-08  
    0.28000     1.976e-08    2.396e-08  
    0.29000     2.000e-08    2.409e-08  
    0.30000     2.024e-08    2.422e-08  
    0.31000     2.049e-08    2.437e-08  
    0.32000     2.074e-08    2.451e-08  
    0.33000     2.099e-08    2.469e-08  
    0.34000     2.124e-08    2.486e-08  
    0.35000     2.149e-08    2.502e-08  
    0.36000     2.174e-08    2.522e-08  
    0.37000     2.200e-08    2.540e-08  
    0.38000     2.226e-08    2.559e-08  
    0.39000     2.252e-08    2.579e-08  
    0.40000     2.278e-08    2.598e-08  
    0.41000     2.304e-08    2.619e-08  
    0.42000     2.331e-08    2.640e-08  
    0.43000     2.358e-08    2.661e-08  
    0.44000     2.385e-08    2.683e-08  
    0.45000     2.412e-08    2.704e-08  
    0.46000     2.439e-08    2.727e-08  
    0.47000     2.467e-08    2.749e-08  
    0.48000     2.495e-08    2.772e-08  
    0.49000     2.523e-08    2.796e-08  
    0.50000     2.552e-08    2.819e-08  
    0.51000     2.580e-08    2.842e-08  
    0.52000     2.609e-08    2.866e-08  
    0.53000     2.638e-08    2.891e-08  
    0.54000     2.668e-08    2.916e-08  
    0.55000     2.697e-08    2.938e-08  
    0.56000     2.727e-08    2.966e-08  
    0.57000     2.757e-08    2.990e-08  
    0.58000     2.788e-08    3.017e-08  
    0.59000     2.819e-08    3.042e-08  
    0.60000     2.850e-08    3.068e-08  
    0.61000     2.881e-08    3.094e-08  
    0.62000     2.912e-08    3.120e-08  
    0.63000     2.944e-08    3.146e-08  
    0.64000     2.976e-08    3.176e-08  
    0.65000     3.008e-08    3.200e-08  
    0.66000     3.041e-08    3.230e-08  
    0.67000     3.074e-08    3.256e-08  
    0.68000     3.107e-08    3.285e-08  
    0.69000     3.140e-08    3.313e-08  
    0.70000     3.174e-08    3.340e-08  
    0.71000     3.208e-08    3.370e-08  
    0.72000     3.242e-08    3.398e-08  
    0.73000     3.277e-08    3.428e-08  
    0.74000     3.312e-08    3.457e-08  
    0.75000     3.347e-08    3.487e-08  
    0.76000     3.382e-08    3.517e-08  
    0.77000     3.418e-08    3.547e-08  
    0.78000     3.454e-08    3.577e-08  
    0.79000     3.490e-08    3.608e-08  
    0.80000     3.527e-08    3.638e-08  
    0.81000     3.564e-08    3.668e-08  
    0.82000     3.601e-08    3.700e-08  
    0.83000     3.639e-08    3.732e-08  
    0.84000     3.677e-08    3.762e-08  
    0.85000     3.715e-08    3.795e-08  
    0.86000     3.754e-08    3.826e-08  
    0.87000     3.793e-08    3.858e-08  
    0.88000     3.832e-08    3.892e-08  
    0.89000     3.872e-08    3.923e-08  
    0.90000     3.911e-08    3.956e-08  
    0.91000     3.952e-08    3.990e-08  
    0.92000     3.992e-08    4.023e-08  
    0.93000     4.033e-08    4.057e-08  
    0.94000     4.074e-08    4.091e-08  
    0.95000     4.116e-08    4.124e-08  
    0.96000     4.158e-08    4.158e-08  
    0.97000     4.200e-08    4.195e-08  
    0.98000     4.243e-08    4.227e-08  
    0.99000     4.286e-08    4.264e-08  
    1.00000     4.329e-08    4.299e-08  
y
-----------------------------------------------
 ******  
 *sample netlist for bsim-mg

  ******  dc transfer curves tnom=  25.000 temp=  27.000 *****

   *** source        0:vgs =    0.2000        ***

x

        volt    param        param      
                    ids          gds    
    0.         -2.631e-15      0.       
  1.0000e-02    1.449e-07   -4.329e-06  
  2.0000e-02    2.496e-07    1.449e-05  
  3.0000e-02    3.245e-07    1.047e-05  
  4.0000e-02    3.776e-07    7.492e-06  
  5.0000e-02    4.152e-07    5.308e-06  
  6.0000e-02    4.422e-07    3.756e-06  
  7.0000e-02    4.626e-07    2.707e-06  
  8.0000e-02    4.786e-07    2.032e-06  
  9.0000e-02    4.917e-07    1.600e-06  
    0.10000     5.028e-07    1.313e-06  
    0.11000     5.126e-07    1.114e-06  
    0.12000     5.212e-07    9.715e-07  
    0.13000     5.292e-07    8.688e-07  
    0.14000     5.366e-07    7.941e-07  
    0.15000     5.436e-07    7.393e-07  
    0.16000     5.502e-07    6.987e-07  
    0.17000     5.567e-07    6.682e-07  
    0.18000     5.630e-07    6.452e-07  
    0.19000     5.691e-07    6.275e-07  
    0.20000     5.751e-07    6.139e-07  
    0.21000     5.811e-07    6.034e-07  
    0.22000     5.870e-07    5.952e-07  
    0.23000     5.928e-07    5.888e-07  
    0.24000     5.986e-07    5.838e-07  
    0.25000     6.044e-07    5.800e-07  
    0.26000     6.101e-07    5.772e-07  
    0.27000     6.159e-07    5.750e-07  
    0.28000     6.216e-07    5.735e-07  
    0.29000     6.273e-07    5.725e-07  
    0.30000     6.330e-07    5.720e-07  
    0.31000     6.388e-07    5.719e-07  
    0.32000     6.445e-07    5.720e-07  
    0.33000     6.502e-07    5.725e-07  
    0.34000     6.560e-07    5.732e-07  
    0.35000     6.617e-07    5.741e-07  
    0.36000     6.675e-07    5.751e-07  
    0.37000     6.733e-07    5.764e-07  
    0.38000     6.791e-07    5.778e-07  
    0.39000     6.849e-07    5.794e-07  
    0.40000     6.907e-07    5.810e-07  
    0.41000     6.965e-07    5.828e-07  
    0.42000     7.024e-07    5.847e-07  
    0.43000     7.083e-07    5.866e-07  
    0.44000     7.142e-07    5.887e-07  
    0.45000     7.201e-07    5.908e-07  
    0.46000     7.261e-07    5.930e-07  
    0.47000     7.321e-07    5.953e-07  
    0.48000     7.381e-07    5.977e-07  
    0.49000     7.441e-07    6.001e-07  
    0.50000     7.501e-07    6.025e-07  
    0.51000     7.562e-07    6.050e-07  
    0.52000     7.623e-07    6.076e-07  
    0.53000     7.684e-07    6.102e-07  
    0.54000     7.746e-07    6.128e-07  
    0.55000     7.808e-07    6.155e-07  
    0.56000     7.870e-07    6.182e-07  
    0.57000     7.932e-07    6.210e-07  
    0.58000     7.995e-07    6.238e-07  
    0.59000     8.058e-07    6.266e-07  
    0.60000     8.121e-07    6.295e-07  
    0.61000     8.185e-07    6.324e-07  
    0.62000     8.248e-07    6.353e-07  
    0.63000     8.313e-07    6.383e-07  
    0.64000     8.377e-07    6.413e-07  
    0.65000     8.442e-07    6.443e-07  
    0.66000     8.507e-07    6.473e-07  
    0.67000     8.572e-07    6.504e-07  
    0.68000     8.638e-07    6.535e-07  
    0.69000     8.704e-07    6.566e-07  
    0.70000     8.770e-07    6.597e-07  
    0.71000     8.837e-07    6.629e-07  
    0.72000     8.904e-07    6.661e-07  
    0.73000     8.971e-07    6.693e-07  
    0.74000     9.038e-07    6.725e-07  
    0.75000     9.106e-07    6.758e-07  
    0.76000     9.175e-07    6.790e-07  
    0.77000     9.243e-07    6.823e-07  
    0.78000     9.312e-07    6.857e-07  
    0.79000     9.381e-07    6.890e-07  
    0.80000     9.451e-07    6.923e-07  
    0.81000     9.521e-07    6.957e-07  
    0.82000     9.591e-07    6.991e-07  
    0.83000     9.662e-07    7.025e-07  
    0.84000     9.732e-07    7.059e-07  
    0.85000     9.804e-07    7.093e-07  
    0.86000     9.875e-07    7.128e-07  
    0.87000     9.947e-07    7.163e-07  
    0.88000     1.002e-06    7.198e-07  
    0.89000     1.009e-06    7.233e-07  
    0.90000     1.017e-06    7.268e-07  
    0.91000     1.024e-06    7.303e-07  
    0.92000     1.031e-06    7.339e-07  
    0.93000     1.039e-06    7.375e-07  
    0.94000     1.046e-06    7.410e-07  
    0.95000     1.054e-06    7.446e-07  
    0.96000     1.061e-06    7.483e-07  
    0.97000     1.069e-06    7.519e-07  
    0.98000     1.076e-06    7.555e-07  
    0.99000     1.084e-06    7.592e-07  
    1.00000     1.092e-06    7.629e-07  
y
-----------------------------------------------
 ******  
 *sample netlist for bsim-mg

  ******  dc transfer curves tnom=  25.000 temp=  27.000 *****

   *** source        0:vgs =    0.3000        ***

x

        volt    param        param      
                    ids          gds    
    0.         -7.615e-15      0.       
  1.0000e-02    1.542e-06   -1.092e-04  
  2.0000e-02    2.864e-06    1.542e-04  
  3.0000e-02    3.979e-06    1.322e-04  
  4.0000e-02    4.900e-06    1.115e-04  
  5.0000e-02    5.647e-06    9.218e-05  
  6.0000e-02    6.239e-06    7.462e-05  
  7.0000e-02    6.704e-06    5.924e-05  
  8.0000e-02    7.068e-06    4.647e-05  
  9.0000e-02    7.357e-06    3.644e-05  
    0.10000     7.591e-06    2.892e-05  
    0.11000     7.784e-06    2.339e-05  
    0.12000     7.947e-06    1.931e-05  
    0.13000     8.086e-06    1.626e-05  
    0.14000     8.208e-06    1.395e-05  
    0.15000     8.316e-06    1.218e-05  
    0.16000     8.414e-06    1.081e-05  
    0.17000     8.503e-06    9.744e-06  
    0.18000     8.585e-06    8.903e-06  
    0.19000     8.662e-06    8.234e-06  
    0.20000     8.735e-06    7.698e-06  
    0.21000     8.804e-06    7.263e-06  
    0.22000     8.870e-06    6.906e-06  
    0.23000     8.934e-06    6.611e-06  
    0.24000     8.995e-06    6.365e-06  
    0.25000     9.055e-06    6.157e-06  
    0.26000     9.113e-06    5.981e-06  
    0.27000     9.170e-06    5.829e-06  
    0.28000     9.226e-06    5.699e-06  
    0.29000     9.281e-06    5.585e-06  
    0.30000     9.335e-06    5.486e-06  
    0.31000     9.388e-06    5.399e-06  
    0.32000     9.441e-06    5.322e-06  
    0.33000     9.493e-06    5.254e-06  
    0.34000     9.544e-06    5.193e-06  
    0.35000     9.595e-06    5.138e-06  
    0.36000     9.645e-06    5.090e-06  
    0.37000     9.696e-06    5.046e-06  
    0.38000     9.745e-06    5.006e-06  
    0.39000     9.795e-06    4.970e-06  
    0.40000     9.844e-06    4.938e-06  
    0.41000     9.893e-06    4.908e-06  
    0.42000     9.941e-06    4.881e-06  
    0.43000     9.989e-06    4.857e-06  
    0.44000     1.004e-05    4.834e-06  
    0.45000     1.009e-05    4.814e-06  
    0.46000     1.013e-05    4.796e-06  
    0.47000     1.018e-05    4.779e-06  
    0.48000     1.023e-05    4.763e-06  
    0.49000     1.028e-05    4.749e-06  
    0.50000     1.032e-05    4.736e-06  
    0.51000     1.037e-05    4.724e-06  
    0.52000     1.042e-05    4.714e-06  
    0.53000     1.046e-05    4.704e-06  
    0.54000     1.051e-05    4.695e-06  
    0.55000     1.056e-05    4.687e-06  
    0.56000     1.060e-05    4.680e-06  
    0.57000     1.065e-05    4.673e-06  
    0.58000     1.070e-05    4.667e-06  
    0.59000     1.074e-05    4.662e-06  
    0.60000     1.079e-05    4.657e-06  
    0.61000     1.084e-05    4.653e-06  
    0.62000     1.088e-05    4.650e-06  
    0.63000     1.093e-05    4.646e-06  
    0.64000     1.098e-05    4.644e-06  
    0.65000     1.102e-05    4.641e-06  
    0.66000     1.107e-05    4.640e-06  
    0.67000     1.112e-05    4.638e-06  
    0.68000     1.116e-05    4.637e-06  
    0.69000     1.121e-05    4.636e-06  
    0.70000     1.125e-05    4.636e-06  
    0.71000     1.130e-05    4.636e-06  
    0.72000     1.135e-05    4.636e-06  
    0.73000     1.139e-05    4.636e-06  
    0.74000     1.144e-05    4.637e-06  
    0.75000     1.149e-05    4.638e-06  
    0.76000     1.153e-05    4.639e-06  
    0.77000     1.158e-05    4.640e-06  
    0.78000     1.163e-05    4.642e-06  
    0.79000     1.167e-05    4.644e-06  
    0.80000     1.172e-05    4.645e-06  
    0.81000     1.177e-05    4.648e-06  
    0.82000     1.181e-05    4.650e-06  
    0.83000     1.186e-05    4.652e-06  
    0.84000     1.191e-05    4.655e-06  
    0.85000     1.195e-05    4.658e-06  
    0.86000     1.200e-05    4.661e-06  
    0.87000     1.205e-05    4.664e-06  
    0.88000     1.209e-05    4.667e-06  
    0.89000     1.214e-05    4.670e-06  
    0.90000     1.219e-05    4.674e-06  
    0.91000     1.223e-05    4.678e-06  
    0.92000     1.228e-05    4.681e-06  
    0.93000     1.233e-05    4.685e-06  
    0.94000     1.237e-05    4.689e-06  
    0.95000     1.242e-05    4.693e-06  
    0.96000     1.247e-05    4.697e-06  
    0.97000     1.251e-05    4.701e-06  
    0.98000     1.256e-05    4.706e-06  
    0.99000     1.261e-05    4.710e-06  
    1.00000     1.266e-05    4.715e-06  
y
-----------------------------------------------
 ******  
 *sample netlist for bsim-mg

  ******  dc transfer curves tnom=  25.000 temp=  27.000 *****

   *** source        0:vgs =    0.4000        ***

x

        volt    param        param      
                    ids          gds    
    0.         -1.975e-14      0.       
  1.0000e-02    4.122e-06   -1.266e-03  
  2.0000e-02    7.975e-06    4.122e-04  
  3.0000e-02    1.156e-05    3.853e-04  
  4.0000e-02    1.487e-05    3.582e-04  
  5.0000e-02    1.790e-05    3.309e-04  
  6.0000e-02    2.066e-05    3.034e-04  
  7.0000e-02    2.314e-05    2.758e-04  
  8.0000e-02    2.535e-05    2.483e-04  
  9.0000e-02    2.731e-05    2.214e-04  
    0.10000     2.902e-05    1.956e-04  
    0.11000     3.052e-05    1.714e-04  
    0.12000     3.182e-05    1.494e-04  
    0.13000     3.294e-05    1.297e-04  
    0.14000     3.391e-05    1.124e-04  
    0.15000     3.476e-05    9.744e-05  
    0.16000     3.550e-05    8.461e-05  
    0.17000     3.614e-05    7.370e-05  
    0.18000     3.671e-05    6.448e-05  
    0.19000     3.721e-05    5.674e-05  
    0.20000     3.766e-05    5.025e-05  
    0.21000     3.806e-05    4.483e-05  
    0.22000     3.843e-05    4.030e-05  
    0.23000     3.876e-05    3.651e-05  
    0.24000     3.907e-05    3.332e-05  
    0.25000     3.935e-05    3.064e-05  
    0.26000     3.962e-05    2.837e-05  
    0.27000     3.986e-05    2.644e-05  
    0.28000     4.010e-05    2.479e-05  
    0.29000     4.032e-05    2.338e-05  
    0.30000     4.053e-05    2.215e-05  
    0.31000     4.073e-05    2.109e-05  
    0.32000     4.093e-05    2.017e-05  
    0.33000     4.111e-05    1.935e-05  
    0.34000     4.129e-05    1.863e-05  
    0.35000     4.147e-05    1.800e-05  
    0.36000     4.164e-05    1.743e-05  
    0.37000     4.180e-05    1.693e-05  
    0.38000     4.196e-05    1.647e-05  
    0.39000     4.212e-05    1.606e-05  
    0.40000     4.227e-05    1.569e-05  
    0.41000     4.242e-05    1.536e-05  
    0.42000     4.257e-05    1.505e-05  
    0.43000     4.271e-05    1.477e-05  
    0.44000     4.286e-05    1.451e-05  
    0.45000     4.300e-05    1.428e-05  
    0.46000     4.314e-05    1.406e-05  
    0.47000     4.327e-05    1.386e-05  
    0.48000     4.341e-05    1.367e-05  
    0.49000     4.354e-05    1.350e-05  
    0.50000     4.367e-05    1.333e-05  
    0.51000     4.380e-05    1.318e-05  
    0.52000     4.393e-05    1.304e-05  
    0.53000     4.406e-05    1.291e-05  
    0.54000     4.419e-05    1.279e-05  
    0.55000     4.431e-05    1.267e-05  
    0.56000     4.444e-05    1.256e-05  
    0.57000     4.456e-05    1.246e-05  
    0.58000     4.468e-05    1.236e-05  
    0.59000     4.481e-05    1.227e-05  
    0.60000     4.493e-05    1.218e-05  
    0.61000     4.505e-05    1.210e-05  
    0.62000     4.517e-05    1.202e-05  
    0.63000     4.528e-05    1.194e-05  
    0.64000     4.540e-05    1.187e-05  
    0.65000     4.552e-05    1.181e-05  
    0.66000     4.564e-05    1.174e-05  
    0.67000     4.575e-05    1.168e-05  
    0.68000     4.587e-05    1.162e-05  
    0.69000     4.598e-05    1.157e-05  
    0.70000     4.610e-05    1.151e-05  
    0.71000     4.621e-05    1.146e-05  
    0.72000     4.633e-05    1.141e-05  
    0.73000     4.644e-05    1.137e-05  
    0.74000     4.655e-05    1.132e-05  
    0.75000     4.667e-05    1.128e-05  
    0.76000     4.678e-05    1.124e-05  
    0.77000     4.689e-05    1.120e-05  
    0.78000     4.700e-05    1.116e-05  
    0.79000     4.711e-05    1.113e-05  
    0.80000     4.722e-05    1.109e-05  
    0.81000     4.733e-05    1.106e-05  
    0.82000     4.744e-05    1.102e-05  
    0.83000     4.755e-05    1.099e-05  
    0.84000     4.766e-05    1.096e-05  
    0.85000     4.777e-05    1.093e-05  
    0.86000     4.788e-05    1.091e-05  
    0.87000     4.799e-05    1.088e-05  
    0.88000     4.810e-05    1.085e-05  
    0.89000     4.820e-05    1.083e-05  
    0.90000     4.831e-05    1.080e-05  
    0.91000     4.842e-05    1.078e-05  
    0.92000     4.853e-05    1.076e-05  
    0.93000     4.863e-05    1.074e-05  
    0.94000     4.874e-05    1.072e-05  
    0.95000     4.885e-05    1.069e-05  
    0.96000     4.895e-05    1.067e-05  
    0.97000     4.906e-05    1.066e-05  
    0.98000     4.917e-05    1.064e-05  
    0.99000     4.927e-05    1.062e-05  
    1.00000     4.938e-05    1.060e-05  
y
-----------------------------------------------
 ******  
 *sample netlist for bsim-mg

  ******  dc transfer curves tnom=  25.000 temp=  27.000 *****

   *** source        0:vgs =    0.5000        ***

x

        volt    param        param      
                    ids          gds    
    0.         -4.436e-14      0.       
  1.0000e-02    6.638e-06   -4.938e-03  
  2.0000e-02    1.304e-05    6.638e-04  
  3.0000e-02    1.919e-05    6.401e-04  
  4.0000e-02    2.509e-05    6.155e-04  
  5.0000e-02    3.073e-05    5.900e-04  
  6.0000e-02    3.609e-05    5.636e-04  
  7.0000e-02    4.117e-05    5.362e-04  
  8.0000e-02    4.596e-05    5.080e-04  
  9.0000e-02    5.046e-05    4.790e-04  
    0.10000     5.465e-05    4.494e-04  
    0.11000     5.855e-05    4.195e-04  
    0.12000     6.215e-05    3.896e-04  
    0.13000     6.546e-05    3.601e-04  
    0.14000     6.850e-05    3.314e-04  
    0.15000     7.127e-05    3.037e-04  
    0.16000     7.380e-05    2.774e-04  
    0.17000     7.610e-05    2.527e-04  
    0.18000     7.818e-05    2.297e-04  
    0.19000     8.007e-05    2.084e-04  
    0.20000     8.178e-05    1.888e-04  
    0.21000     8.333e-05    1.709e-04  
    0.22000     8.473e-05    1.546e-04  
    0.23000     8.599e-05    1.400e-04  
    0.24000     8.714e-05    1.268e-04  
    0.25000     8.819e-05    1.151e-04  
    0.26000     8.914e-05    1.046e-04  
    0.27000     9.002e-05    9.536e-05  
    0.28000     9.082e-05    8.719e-05  
    0.29000     9.155e-05    7.999e-05  
    0.30000     9.223e-05    7.365e-05  
    0.31000     9.286e-05    6.806e-05  
    0.32000     9.345e-05    6.314e-05  
    0.33000     9.400e-05    5.879e-05  
    0.34000     9.452e-05    5.496e-05  
    0.35000     9.500e-05    5.156e-05  
    0.36000     9.546e-05    4.855e-05  
    0.37000     9.590e-05    4.587e-05  
    0.38000     9.631e-05    4.348e-05  
    0.39000     9.670e-05    4.134e-05  
    0.40000     9.708e-05    3.943e-05  
    0.41000     9.744e-05    3.771e-05  
    0.42000     9.779e-05    3.616e-05  
    0.43000     9.812e-05    3.475e-05  
    0.44000     9.845e-05    3.348e-05  
    0.45000     9.876e-05    3.232e-05  
    0.46000     9.906e-05    3.127e-05  
    0.47000     9.936e-05    3.031e-05  
    0.48000     9.964e-05    2.943e-05  
    0.49000     9.992e-05    2.862e-05  
    0.50000     1.002e-04    2.787e-05  
    0.51000     1.005e-04    2.718e-05  
    0.52000     1.007e-04    2.655e-05  
    0.53000     1.010e-04    2.596e-05  
    0.54000     1.012e-04    2.541e-05  
    0.55000     1.015e-04    2.490e-05  
    0.56000     1.017e-04    2.443e-05  
    0.57000     1.019e-04    2.398e-05  
    0.58000     1.022e-04    2.357e-05  
    0.59000     1.024e-04    2.318e-05  
    0.60000     1.026e-04    2.281e-05  
    0.61000     1.028e-04    2.247e-05  
    0.62000     1.031e-04    2.215e-05  
    0.63000     1.033e-04    2.184e-05  
    0.64000     1.035e-04    2.155e-05  
    0.65000     1.037e-04    2.128e-05  
    0.66000     1.039e-04    2.102e-05  
    0.67000     1.041e-04    2.078e-05  
    0.68000     1.043e-04    2.055e-05  
    0.69000     1.045e-04    2.033e-05  
    0.70000     1.047e-04    2.012e-05  
    0.71000     1.049e-04    1.992e-05  
    0.72000     1.051e-04    1.972e-05  
    0.73000     1.053e-04    1.954e-05  
    0.74000     1.055e-04    1.937e-05  
    0.75000     1.057e-04    1.920e-05  
    0.76000     1.059e-04    1.904e-05  
    0.77000     1.061e-04    1.889e-05  
    0.78000     1.063e-04    1.874e-05  
    0.79000     1.064e-04    1.860e-05  
    0.80000     1.066e-04    1.847e-05  
    0.81000     1.068e-04    1.834e-05  
    0.82000     1.070e-04    1.821e-05  
    0.83000     1.072e-04    1.809e-05  
    0.84000     1.073e-04    1.798e-05  
    0.85000     1.075e-04    1.787e-05  
    0.86000     1.077e-04    1.776e-05  
    0.87000     1.079e-04    1.765e-05  
    0.88000     1.080e-04    1.755e-05  
    0.89000     1.082e-04    1.746e-05  
    0.90000     1.084e-04    1.736e-05  
    0.91000     1.086e-04    1.727e-05  
    0.92000     1.087e-04    1.719e-05  
    0.93000     1.089e-04    1.710e-05  
    0.94000     1.091e-04    1.702e-05  
    0.95000     1.092e-04    1.694e-05  
    0.96000     1.094e-04    1.686e-05  
    0.97000     1.096e-04    1.679e-05  
    0.98000     1.097e-04    1.671e-05  
    0.99000     1.099e-04    1.664e-05  
    1.00000     1.101e-04    1.658e-05  
y
-----------------------------------------------
 ******  
 *sample netlist for bsim-mg

  ******  dc transfer curves tnom=  25.000 temp=  27.000 *****

   *** source        0:vgs =    0.6000        ***

x

        volt    param        param      
                    ids          gds    
    0.         -9.114e-14      0.       
  1.0000e-02    8.687e-06   -1.101e-02  
  2.0000e-02    1.719e-05    8.687e-04  
  3.0000e-02    2.549e-05    8.499e-04  
  4.0000e-02    3.357e-05    8.299e-04  
  5.0000e-02    4.144e-05    8.089e-04  
  6.0000e-02    4.908e-05    7.868e-04  
  7.0000e-02    5.647e-05    7.635e-04  
  8.0000e-02    6.360e-05    7.391e-04  
  9.0000e-02    7.047e-05    7.135e-04  
    0.10000     7.707e-05    6.869e-04  
    0.11000     8.337e-05    6.593e-04  
    0.12000     8.939e-05    6.309e-04  
    0.13000     9.511e-05    6.017e-04  
    0.14000     1.005e-04    5.721e-04  
    0.15000     1.057e-04    5.422e-04  
    0.16000     1.105e-04    5.123e-04  
    0.17000     1.150e-04    4.827e-04  
    0.18000     1.193e-04    4.535e-04  
    0.19000     1.232e-04    4.251e-04  
    0.20000     1.270e-04    3.975e-04  
    0.21000     1.304e-04    3.711e-04  
    0.22000     1.336e-04    3.457e-04  
    0.23000     1.366e-04    3.216e-04  
    0.24000     1.394e-04    2.988e-04  
    0.25000     1.420e-04    2.772e-04  
    0.26000     1.443e-04    2.569e-04  
    0.27000     1.465e-04    2.380e-04  
    0.28000     1.486e-04    2.203e-04  
    0.29000     1.505e-04    2.039e-04  
    0.30000     1.522e-04    1.888e-04  
    0.31000     1.538e-04    1.748e-04  
    0.32000     1.553e-04    1.620e-04  
    0.33000     1.567e-04    1.503e-04  
    0.34000     1.580e-04    1.396e-04  
    0.35000     1.592e-04    1.298e-04  
    0.36000     1.604e-04    1.209e-04  
    0.37000     1.614e-04    1.129e-04  
    0.38000     1.624e-04    1.056e-04  
    0.39000     1.633e-04    9.896e-05  
    0.40000     1.642e-04    9.295e-05  
    0.41000     1.650e-04    8.749e-05  
    0.42000     1.658e-04    8.254e-05  
    0.43000     1.666e-04    7.804e-05  
    0.44000     1.673e-04    7.395e-05  
    0.45000     1.679e-04    7.022e-05  
    0.46000     1.686e-04    6.683e-05  
    0.47000     1.692e-04    6.373e-05  
    0.48000     1.698e-04    6.089e-05  
    0.49000     1.703e-04    5.829e-05  
    0.50000     1.709e-04    5.591e-05  
    0.51000     1.714e-04    5.372e-05  
    0.52000     1.719e-04    5.171e-05  
    0.53000     1.724e-04    4.986e-05  
    0.54000     1.728e-04    4.814e-05  
    0.55000     1.733e-04    4.656e-05  
    0.56000     1.737e-04    4.509e-05  
    0.57000     1.741e-04    4.373e-05  
    0.58000     1.746e-04    4.246e-05  
    0.59000     1.750e-04    4.129e-05  
    0.60000     1.753e-04    4.019e-05  
    0.61000     1.757e-04    3.917e-05  
    0.62000     1.761e-04    3.821e-05  
    0.63000     1.765e-04    3.731e-05  
    0.64000     1.768e-04    3.647e-05  
    0.65000     1.772e-04    3.568e-05  
    0.66000     1.775e-04    3.494e-05  
    0.67000     1.778e-04    3.424e-05  
    0.68000     1.782e-04    3.358e-05  
    0.69000     1.785e-04    3.296e-05  
    0.70000     1.788e-04    3.237e-05  
    0.71000     1.791e-04    3.181e-05  
    0.72000     1.794e-04    3.129e-05  
    0.73000     1.797e-04    3.079e-05  
    0.74000     1.800e-04    3.031e-05  
    0.75000     1.803e-04    2.986e-05  
    0.76000     1.806e-04    2.943e-05  
    0.77000     1.809e-04    2.903e-05  
    0.78000     1.812e-04    2.864e-05  
    0.79000     1.815e-04    2.827e-05  
    0.80000     1.818e-04    2.791e-05  
    0.81000     1.820e-04    2.757e-05  
    0.82000     1.823e-04    2.725e-05  
    0.83000     1.826e-04    2.694e-05  
    0.84000     1.828e-04    2.664e-05  
    0.85000     1.831e-04    2.635e-05  
    0.86000     1.833e-04    2.608e-05  
    0.87000     1.836e-04    2.582e-05  
    0.88000     1.839e-04    2.556e-05  
    0.89000     1.841e-04    2.532e-05  
    0.90000     1.843e-04    2.509e-05  
    0.91000     1.846e-04    2.486e-05  
    0.92000     1.848e-04    2.464e-05  
    0.93000     1.851e-04    2.444e-05  
    0.94000     1.853e-04    2.423e-05  
    0.95000     1.856e-04    2.404e-05  
    0.96000     1.858e-04    2.385e-05  
    0.97000     1.860e-04    2.367e-05  
    0.98000     1.863e-04    2.349e-05  
    0.99000     1.865e-04    2.332e-05  
    1.00000     1.867e-04    2.316e-05  
y
-----------------------------------------------
 ******  
 *sample netlist for bsim-mg

  ******  dc transfer curves tnom=  25.000 temp=  27.000 *****

   *** source        0:vgs =    0.7000        ***

x

        volt    param        param      
                    ids          gds    
    0.         -1.785e-13      0.       
  1.0000e-02    1.026e-05   -1.867e-02  
  2.0000e-02    2.038e-05    1.026e-03  
  3.0000e-02    3.034e-05    1.012e-03  
  4.0000e-02    4.014e-05    9.961e-04  
  5.0000e-02    4.975e-05    9.794e-04  
  6.0000e-02    5.918e-05    9.616e-04  
  7.0000e-02    6.841e-05    9.427e-04  
  8.0000e-02    7.742e-05    9.227e-04  
  9.0000e-02    8.621e-05    9.015e-04  
    0.10000     9.477e-05    8.792e-04  
    0.11000     1.031e-04    8.559e-04  
    0.12000     1.111e-04    8.315e-04  
    0.13000     1.189e-04    8.062e-04  
    0.14000     1.265e-04    7.799e-04  
    0.15000     1.337e-04    7.529e-04  
    0.16000     1.407e-04    7.253e-04  
    0.17000     1.474e-04    6.971e-04  
    0.18000     1.538e-04    6.686e-04  
    0.19000     1.599e-04    6.399e-04  
    0.20000     1.657e-04    6.113e-04  
    0.21000     1.713e-04    5.828e-04  
    0.22000     1.765e-04    5.546e-04  
    0.23000     1.815e-04    5.269e-04  
    0.24000     1.863e-04    4.998e-04  
    0.25000     1.908e-04    4.734e-04  
    0.26000     1.950e-04    4.478e-04  
    0.27000     1.990e-04    4.231e-04  
    0.28000     2.027e-04    3.992e-04  
    0.29000     2.063e-04    3.764e-04  
    0.30000     2.096e-04    3.545e-04  
    0.31000     2.128e-04    3.335e-04  
    0.32000     2.157e-04    3.136e-04  
    0.33000     2.185e-04    2.947e-04  
    0.34000     2.211e-04    2.768e-04  
    0.35000     2.235e-04    2.600e-04  
    0.36000     2.258e-04    2.441e-04  
    0.37000     2.280e-04    2.292e-04  
    0.38000     2.300e-04    2.152e-04  
    0.39000     2.319e-04    2.022e-04  
    0.40000     2.337e-04    1.900e-04  
    0.41000     2.353e-04    1.788e-04  
    0.42000     2.369e-04    1.683e-04  
    0.43000     2.384e-04    1.586e-04  
    0.44000     2.398e-04    1.496e-04  
    0.45000     2.412e-04    1.412e-04  
    0.46000     2.424e-04    1.336e-04  
    0.47000     2.436e-04    1.264e-04  
    0.48000     2.448e-04    1.199e-04  
    0.49000     2.459e-04    1.138e-04  
    0.50000     2.469e-04    1.082e-04  
    0.51000     2.479e-04    1.030e-04  
    0.52000     2.488e-04    9.819e-05  
    0.53000     2.497e-04    9.375e-05  
    0.54000     2.506e-04    8.964e-05  
    0.55000     2.514e-04    8.583e-05  
    0.56000     2.522e-04    8.229e-05  
    0.57000     2.529e-04    7.900e-05  
    0.58000     2.537e-04    7.595e-05  
    0.59000     2.544e-04    7.311e-05  
    0.60000     2.551e-04    7.047e-05  
    0.61000     2.557e-04    6.801e-05  
    0.62000     2.563e-04    6.571e-05  
    0.63000     2.570e-04    6.356e-05  
    0.64000     2.576e-04    6.155e-05  
    0.65000     2.581e-04    5.967e-05  
    0.66000     2.587e-04    5.791e-05  
    0.67000     2.592e-04    5.626e-05  
    0.68000     2.598e-04    5.471e-05  
    0.69000     2.603e-04    5.325e-05  
    0.70000     2.608e-04    5.188e-05  
    0.71000     2.613e-04    5.058e-05  
    0.72000     2.618e-04    4.936e-05  
    0.73000     2.622e-04    4.821e-05  
    0.74000     2.627e-04    4.712e-05  
    0.75000     2.632e-04    4.609e-05  
    0.76000     2.636e-04    4.512e-05  
    0.77000     2.640e-04    4.419e-05  
    0.78000     2.645e-04    4.331e-05  
    0.79000     2.649e-04    4.248e-05  
    0.80000     2.653e-04    4.169e-05  
    0.81000     2.657e-04    4.094e-05  
    0.82000     2.661e-04    4.022e-05  
    0.83000     2.665e-04    3.954e-05  
    0.84000     2.669e-04    3.889e-05  
    0.85000     2.672e-04    3.826e-05  
    0.86000     2.676e-04    3.767e-05  
    0.87000     2.680e-04    3.710e-05  
    0.88000     2.683e-04    3.656e-05  
    0.89000     2.687e-04    3.604e-05  
    0.90000     2.690e-04    3.554e-05  
    0.91000     2.694e-04    3.506e-05  
    0.92000     2.697e-04    3.460e-05  
    0.93000     2.701e-04    3.416e-05  
    0.94000     2.704e-04    3.374e-05  
    0.95000     2.707e-04    3.333e-05  
    0.96000     2.711e-04    3.294e-05  
    0.97000     2.714e-04    3.256e-05  
    0.98000     2.717e-04    3.220e-05  
    0.99000     2.720e-04    3.185e-05  
    1.00000     2.723e-04    3.151e-05  
y
-----------------------------------------------
 ******  
 *sample netlist for bsim-mg

  ******  dc transfer curves tnom=  25.000 temp=  27.000 *****

   *** source        0:vgs =    0.8000        ***

x

        volt    param        param      
                    ids          gds    
    0.         -3.416e-13      0.       
  1.0000e-02    1.146e-05   -2.723e-02  
  2.0000e-02    2.281e-05    1.146e-03  
  3.0000e-02    3.404e-05    1.135e-03  
  4.0000e-02    4.514e-05    1.123e-03  
  5.0000e-02    5.609e-05    1.110e-03  
  6.0000e-02    6.690e-05    1.095e-03  
  7.0000e-02    7.753e-05    1.080e-03  
  8.0000e-02    8.800e-05    1.064e-03  
  9.0000e-02    9.829e-05    1.047e-03  
    0.10000     1.084e-04    1.028e-03  
    0.11000     1.183e-04    1.009e-03  
    0.12000     1.279e-04    9.889e-04  
    0.13000     1.374e-04    9.677e-04  
    0.14000     1.466e-04    9.455e-04  
    0.15000     1.556e-04    9.225e-04  
    0.16000     1.643e-04    8.986e-04  
    0.17000     1.728e-04    8.740e-04  
    0.18000     1.811e-04    8.488e-04  
    0.19000     1.890e-04    8.229e-04  
    0.20000     1.967e-04    7.967e-04  
    0.21000     2.042e-04    7.701e-04  
    0.22000     2.113e-04    7.432e-04  
    0.23000     2.182e-04    7.163e-04  
    0.24000     2.248e-04    6.894e-04  
    0.25000     2.312e-04    6.626e-04  
    0.26000     2.373e-04    6.360e-04  
    0.27000     2.431e-04    6.098e-04  
    0.28000     2.487e-04    5.839e-04  
    0.29000     2.541e-04    5.586e-04  
    0.30000     2.592e-04    5.338e-04  
    0.31000     2.640e-04    5.097e-04  
    0.32000     2.687e-04    4.861e-04  
    0.33000     2.731e-04    4.633e-04  
    0.34000     2.773e-04    4.412e-04  
    0.35000     2.813e-04    4.198e-04  
    0.36000     2.851e-04    3.992e-04  
    0.37000     2.887e-04    3.794e-04  
    0.38000     2.921e-04    3.603e-04  
    0.39000     2.953e-04    3.420e-04  
    0.40000     2.984e-04    3.245e-04  
    0.41000     3.013e-04    3.079e-04  
    0.42000     3.041e-04    2.920e-04  
    0.43000     3.067e-04    2.769e-04  
    0.44000     3.092e-04    2.626e-04  
    0.45000     3.116e-04    2.490e-04  
    0.46000     3.138e-04    2.362e-04  
    0.47000     3.159e-04    2.241e-04  
    0.48000     3.180e-04    2.127e-04  
    0.49000     3.199e-04    2.020e-04  
    0.50000     3.217e-04    1.920e-04  
    0.51000     3.234e-04    1.825e-04  
    0.52000     3.251e-04    1.737e-04  
    0.53000     3.267e-04    1.654e-04  
    0.54000     3.282e-04    1.576e-04  
    0.55000     3.296e-04    1.503e-04  
    0.56000     3.310e-04    1.435e-04  
    0.57000     3.323e-04    1.372e-04  
    0.58000     3.335e-04    1.312e-04  
    0.59000     3.348e-04    1.256e-04  
    0.60000     3.359e-04    1.204e-04  
    0.61000     3.370e-04    1.155e-04  
    0.62000     3.381e-04    1.109e-04  
    0.63000     3.391e-04    1.066e-04  
    0.64000     3.401e-04    1.026e-04  
    0.65000     3.411e-04    9.882e-05  
    0.66000     3.420e-04    9.527e-05  
    0.67000     3.429e-04    9.194e-05  
    0.68000     3.437e-04    8.881e-05  
    0.69000     3.445e-04    8.587e-05  
    0.70000     3.454e-04    8.310e-05  
    0.71000     3.461e-04    8.049e-05  
    0.72000     3.469e-04    7.803e-05  
    0.73000     3.476e-04    7.571e-05  
    0.74000     3.483e-04    7.352e-05  
    0.75000     3.490e-04    7.145e-05  
    0.76000     3.497e-04    6.950e-05  
    0.77000     3.504e-04    6.765e-05  
    0.78000     3.510e-04    6.590e-05  
    0.79000     3.516e-04    6.424e-05  
    0.80000     3.523e-04    6.267e-05  
    0.81000     3.528e-04    6.117e-05  
    0.82000     3.534e-04    5.976e-05  
    0.83000     3.540e-04    5.841e-05  
    0.84000     3.546e-04    5.713e-05  
    0.85000     3.551e-04    5.591e-05  
    0.86000     3.556e-04    5.475e-05  
    0.87000     3.562e-04    5.364e-05  
    0.88000     3.567e-04    5.259e-05  
    0.89000     3.572e-04    5.158e-05  
    0.90000     3.577e-04    5.062e-05  
    0.91000     3.582e-04    4.970e-05  
    0.92000     3.587e-04    4.882e-05  
    0.93000     3.591e-04    4.797e-05  
    0.94000     3.596e-04    4.717e-05  
    0.95000     3.601e-04    4.639e-05  
    0.96000     3.605e-04    4.565e-05  
    0.97000     3.609e-04    4.494e-05  
    0.98000     3.614e-04    4.426e-05  
    0.99000     3.618e-04    4.360e-05  
    1.00000     3.622e-04    4.297e-05  
y
-----------------------------------------------
 ******  
 *sample netlist for bsim-mg

  ******  dc transfer curves tnom=  25.000 temp=  27.000 *****

   *** source        0:vgs =    0.9000        ***

x

        volt    param        param      
                    ids          gds    
    0.         -6.497e-13      0.       
  1.0000e-02    1.238e-05   -3.622e-02  
  2.0000e-02    2.468e-05    1.238e-03  
  3.0000e-02    3.688e-05    1.230e-03  
  4.0000e-02    4.897e-05    1.220e-03  
  5.0000e-02    6.095e-05    1.209e-03  
  6.0000e-02    7.281e-05    1.198e-03  
  7.0000e-02    8.454e-05    1.186e-03  
  8.0000e-02    9.612e-05    1.173e-03  
  9.0000e-02    1.076e-04    1.158e-03  
    0.10000     1.188e-04    1.144e-03  
    0.11000     1.299e-04    1.128e-03  
    0.12000     1.409e-04    1.111e-03  
    0.13000     1.516e-04    1.093e-03  
    0.14000     1.622e-04    1.075e-03  
    0.15000     1.725e-04    1.055e-03  
    0.16000     1.827e-04    1.035e-03  
    0.17000     1.926e-04    1.014e-03  
    0.18000     2.023e-04    9.927e-04  
    0.19000     2.118e-04    9.704e-04  
    0.20000     2.210e-04    9.475e-04  
    0.21000     2.300e-04    9.240e-04  
    0.22000     2.388e-04    9.001e-04  
    0.23000     2.473e-04    8.758e-04  
    0.24000     2.555e-04    8.512e-04  
    0.25000     2.636e-04    8.264e-04  
    0.26000     2.713e-04    8.014e-04  
    0.27000     2.788e-04    7.763e-04  
    0.28000     2.861e-04    7.513e-04  
    0.29000     2.931e-04    7.263e-04  
    0.30000     2.999e-04    7.016e-04  
    0.31000     3.064e-04    6.770e-04  
    0.32000     3.127e-04    6.528e-04  
    0.33000     3.188e-04    6.289e-04  
    0.34000     3.246e-04    6.054e-04  
    0.35000     3.302e-04    5.824e-04  
    0.36000     3.356e-04    5.598e-04  
    0.37000     3.407e-04    5.377e-04  
    0.38000     3.457e-04    5.162e-04  
    0.39000     3.504e-04    4.952e-04  
    0.40000     3.550e-04    4.748e-04  
    0.41000     3.593e-04    4.549e-04  
    0.42000     3.635e-04    4.357e-04  
    0.43000     3.675e-04    4.170e-04  
    0.44000     3.713e-04    3.990e-04  
    0.45000     3.749e-04    3.816e-04  
    0.46000     3.784e-04    3.649e-04  
    0.47000     3.818e-04    3.487e-04  
    0.48000     3.850e-04    3.332e-04  
    0.49000     3.880e-04    3.184e-04  
    0.50000     3.909e-04    3.041e-04  
    0.51000     3.937e-04    2.905e-04  
    0.52000     3.963e-04    2.775e-04  
    0.53000     3.989e-04    2.652e-04  
    0.54000     4.013e-04    2.534e-04  
    0.55000     4.036e-04    2.422e-04  
    0.56000     4.058e-04    2.315e-04  
    0.57000     4.079e-04    2.214e-04  
    0.58000     4.100e-04    2.119e-04  
    0.59000     4.119e-04    2.028e-04  
    0.60000     4.138e-04    1.942e-04  
    0.61000     4.155e-04    1.861e-04  
    0.62000     4.173e-04    1.784e-04  
    0.63000     4.189e-04    1.712e-04  
    0.64000     4.205e-04    1.643e-04  
    0.65000     4.220e-04    1.578e-04  
    0.66000     4.235e-04    1.517e-04  
    0.67000     4.249e-04    1.459e-04  
    0.68000     4.262e-04    1.405e-04  
    0.69000     4.275e-04    1.353e-04  
    0.70000     4.288e-04    1.304e-04  
    0.71000     4.300e-04    1.258e-04  
    0.72000     4.312e-04    1.215e-04  
    0.73000     4.323e-04    1.174e-04  
    0.74000     4.334e-04    1.135e-04  
    0.75000     4.345e-04    1.098e-04  
    0.76000     4.355e-04    1.063e-04  
    0.77000     4.365e-04    1.030e-04  
    0.78000     4.375e-04    9.985e-05  
    0.79000     4.384e-04    9.688e-05  
    0.80000     4.393e-04    9.406e-05  
    0.81000     4.402e-04    9.139e-05  
    0.82000     4.411e-04    8.885e-05  
    0.83000     4.419e-04    8.644e-05  
    0.84000     4.427e-04    8.415e-05  
    0.85000     4.435e-04    8.197e-05  
    0.86000     4.443e-04    7.989e-05  
    0.87000     4.451e-04    7.792e-05  
    0.88000     4.458e-04    7.603e-05  
    0.89000     4.465e-04    7.424e-05  
    0.90000     4.472e-04    7.253e-05  
    0.91000     4.479e-04    7.090e-05  
    0.92000     4.486e-04    6.934e-05  
    0.93000     4.493e-04    6.785e-05  
    0.94000     4.499e-04    6.642e-05  
    0.95000     4.506e-04    6.506e-05  
    0.96000     4.512e-04    6.375e-05  
    0.97000     4.518e-04    6.251e-05  
    0.98000     4.524e-04    6.131e-05  
    0.99000     4.530e-04    6.016e-05  
    1.00000     4.536e-04    5.906e-05  
y
-----------------------------------------------
 ******  
 *sample netlist for bsim-mg

  ******  dc transfer curves tnom=  25.000 temp=  27.000 *****

   *** source        0:vgs =    1.0000        ***

x

        volt    param        param      
                    ids          gds    
    0.         -1.241e-12      0.       
  1.0000e-02    1.310e-05   -4.536e-02  
  2.0000e-02    2.613e-05    1.310e-03  
  3.0000e-02    3.908e-05    1.303e-03  
  4.0000e-02    5.195e-05    1.295e-03  
  5.0000e-02    6.472e-05    1.287e-03  
  6.0000e-02    7.740e-05    1.278e-03  
  7.0000e-02    8.996e-05    1.268e-03  
  8.0000e-02    1.024e-04    1.257e-03  
  9.0000e-02    1.147e-04    1.245e-03  
    0.10000     1.269e-04    1.233e-03  
    0.11000     1.390e-04    1.220e-03  
    0.12000     1.509e-04    1.206e-03  
    0.13000     1.627e-04    1.191e-03  
    0.14000     1.743e-04    1.176e-03  
    0.15000     1.857e-04    1.159e-03  
    0.16000     1.969e-04    1.142e-03  
    0.17000     2.080e-04    1.125e-03  
    0.18000     2.189e-04    1.106e-03  
    0.19000     2.296e-04    1.087e-03  
    0.20000     2.400e-04    1.068e-03  
    0.21000     2.503e-04    1.048e-03  
    0.22000     2.603e-04    1.027e-03  
    0.23000     2.702e-04    1.005e-03  
    0.24000     2.798e-04    9.838e-04  
    0.25000     2.892e-04    9.617e-04  
    0.26000     2.984e-04    9.392e-04  
    0.27000     3.073e-04    9.165e-04  
    0.28000     3.160e-04    8.936e-04  
    0.29000     3.245e-04    8.705e-04  
    0.30000     3.327e-04    8.473e-04  
    0.31000     3.407e-04    8.241e-04  
    0.32000     3.485e-04    8.009e-04  
    0.33000     3.561e-04    7.778e-04  
    0.34000     3.634e-04    7.548e-04  
    0.35000     3.705e-04    7.320e-04  
    0.36000     3.773e-04    7.094e-04  
    0.37000     3.840e-04    6.871e-04  
    0.38000     3.904e-04    6.650e-04  
    0.39000     3.966e-04    6.433e-04  
    0.40000     4.026e-04    6.219e-04  
    0.41000     4.085e-04    6.009e-04  
    0.42000     4.141e-04    5.803e-04  
    0.43000     4.195e-04    5.601e-04  
    0.44000     4.247e-04    5.404e-04  
    0.45000     4.297e-04    5.211e-04  
    0.46000     4.345e-04    5.022e-04  
    0.47000     4.392e-04    4.838e-04  
    0.48000     4.437e-04    4.659e-04  
    0.49000     4.480e-04    4.485e-04  
    0.50000     4.521e-04    4.316e-04  
    0.51000     4.561e-04    4.151e-04  
    0.52000     4.600e-04    3.992e-04  
    0.53000     4.637e-04    3.838e-04  
    0.54000     4.672e-04    3.688e-04  
    0.55000     4.706e-04    3.544e-04  
    0.56000     4.739e-04    3.405e-04  
    0.57000     4.770e-04    3.272e-04  
    0.58000     4.800e-04    3.143e-04  
    0.59000     4.829e-04    3.019e-04  
    0.60000     4.857e-04    2.901e-04  
    0.61000     4.884e-04    2.787e-04  
    0.62000     4.910e-04    2.678e-04  
    0.63000     4.935e-04    2.574e-04  
    0.64000     4.958e-04    2.474e-04  
    0.65000     4.981e-04    2.379e-04  
    0.66000     5.003e-04    2.288e-04  
    0.67000     5.024e-04    2.202e-04  
    0.68000     5.045e-04    2.119e-04  
    0.69000     5.064e-04    2.040e-04  
    0.70000     5.083e-04    1.965e-04  
    0.71000     5.102e-04    1.894e-04  
    0.72000     5.119e-04    1.826e-04  
    0.73000     5.136e-04    1.761e-04  
    0.74000     5.153e-04    1.700e-04  
    0.75000     5.169e-04    1.641e-04  
    0.76000     5.184e-04    1.586e-04  
    0.77000     5.199e-04    1.533e-04  
    0.78000     5.213e-04    1.482e-04  
    0.79000     5.227e-04    1.434e-04  
    0.80000     5.240e-04    1.389e-04  
    0.81000     5.253e-04    1.345e-04  
    0.82000     5.266e-04    1.304e-04  
    0.83000     5.278e-04    1.265e-04  
    0.84000     5.290e-04    1.227e-04  
    0.85000     5.302e-04    1.192e-04  
    0.86000     5.313e-04    1.158e-04  
    0.87000     5.324e-04    1.125e-04  
    0.88000     5.335e-04    1.094e-04  
    0.89000     5.345e-04    1.065e-04  
    0.90000     5.355e-04    1.037e-04  
    0.91000     5.365e-04    1.010e-04  
    0.92000     5.375e-04    9.840e-05  
    0.93000     5.384e-04    9.595e-05  
    0.94000     5.393e-04    9.361e-05  
    0.95000     5.402e-04    9.136e-05  
    0.96000     5.411e-04    8.922e-05  
    0.97000     5.419e-04    8.717e-05  
    0.98000     5.428e-04    8.520e-05  
    0.99000     5.436e-04    8.332e-05  
    1.00000     5.444e-04    8.152e-05  
y
-----------------------------------------------

          ***** job concluded
1****** HSPICE -- G-2012.06 32-BIT (May 27 2012) RHEL32 ******                  
 ******  
 *sample netlist for bsim-mg

  ******  job statistics summary tnom=  25.000 temp=  27.000 *****
  
  
 ******  Machine Information  ******
 CPU:
 model name	: Intel(R) Xeon(R) CPU           X7350  @ 2.93GHz
 cpu MHz	: 2925.869
  
 OS:
 Linux version 2.6.18-348.4.1.el5 (mockbuild@x86-007.build.bos.redhat.com) (gcc version 4.1.2 20080704 (Red Hat 4.1.2-54)) #1 SMP Fri Mar 22 05:41:51 EDT 2013


  ******  HSPICE Threads Information  ******

  Command Line Threads Count :     1
  Available CPU Count        :     8
  Actual Threads Count       :     1


  ******  Circuit Statistics  ******
  # nodes       =       6 # elements   =       4
  # resistors   =       0 # capacitors =       0 # inductors   =       0
  # mutual_inds =       0 # vccs       =       0 # vcvs        =       0
  # cccs        =       0 # ccvs       =       0 # volt_srcs   =       3
  # curr_srcs   =       0 # diodes     =       0 # bjts        =       0
  # jfets       =       0 # mosfets    =       0 # U elements  =       0
  # T elements  =       0 # W elements =       0 # B elements  =       0
  # S elements  =       0 # P elements =       0 # va device   =       1
  # vector_srcs =       0 # N elements =       0


  ******  Runtime Statistics (seconds)  ******

  analysis           time    # points   tot. iter  conv.iter
  op point           0.00           1           0
  dc sweep           0.13        1111        2233
  readin             3.46
  errchk             0.05
  setup              0.00
  output             0.01


           peak memory used        117.16 megabytes
           total cpu time            3.65 seconds
           total elapsed time       14.26 seconds
           job started at     15:13:50 07/12/2013
           job ended   at     15:14:05 07/12/2013


 Loading pVA library idvdnmos.pvadir/pvaRTL_linux.so...
1****** HSPICE -- G-2012.06 32-BIT (May 27 2012) RHEL32 ******                  
 ******  
 *sample netlist for bsim-mg

  ******  circuit name directory
 circuit number to circuit name directory
   number circuitname                     definition         multiplier
        0 main circuit
        1 x1.                             bsimcmg(va)        1.00 
 **info** *pvaI* Creating Verilog-A module 'bsimcmg' for X1

  
      
 *****************************************************************
 ******  option summary
 ******
 runlvl  = 3         bypass  = 2         
  Opening plot unit= 15
 file=idvdnmos.pa1                                                             

 ******  
 *sample netlist for bsim-mg

  ******  dc transfer curves tnom=  25.000 temp= -55.000 *****

   *** source        0:vgs =    0.            ***

x

        volt    param        param      
                    ids          gds    
    0.            0.           0.       
  1.0000e-02    9.338e-13      0.       
  2.0000e-02    1.508e-12    9.338e-11  
  3.0000e-02    1.856e-12    5.747e-11  
  4.0000e-02    2.077e-12    3.476e-11  
  5.0000e-02    2.215e-12    2.207e-11  
  6.0000e-02    2.321e-12    1.387e-11  
  7.0000e-02    2.403e-12    1.060e-11  
  8.0000e-02    2.478e-12    8.129e-12  
  9.0000e-02    2.548e-12    7.560e-12  
    0.10000     2.606e-12    6.992e-12  
    0.11000     2.682e-12    5.798e-12  
    0.12000     2.714e-12    7.617e-12  
    0.13000     2.800e-12    3.126e-12  
    0.14000     2.858e-12    8.640e-12  
    0.15000     2.916e-12    5.798e-12  
    0.16000     2.935e-12    5.798e-12  
    0.17000     3.014e-12    1.933e-12  
    0.18000     3.046e-12    7.844e-12  
    0.19000     3.127e-12    3.181e-12  
    0.20000     3.183e-12    8.160e-12  
    0.21000     3.268e-12    5.599e-12  
    0.22000     3.321e-12    8.452e-12  
    0.23000     3.396e-12    5.276e-12  
    0.24000     3.469e-12    7.554e-12  
    0.25000     3.540e-12    7.330e-12  
    0.26000     3.607e-12    7.014e-12  
    0.27000     3.671e-12    6.720e-12  
    0.28000     3.764e-12    6.451e-12  
    0.29000     3.831e-12    9.277e-12  
    0.30000     3.954e-12    6.672e-12  
    0.31000     4.053e-12    1.228e-11  
    0.32000     4.096e-12    9.964e-12  
    0.33000     4.270e-12    4.270e-12  
    0.34000     4.389e-12    1.737e-11  
    0.35000     4.495e-12    1.199e-11  
    0.36000     4.685e-12    1.051e-11  
    0.37000     4.827e-12    1.909e-11  
    0.38000     4.963e-12    1.420e-11  
    0.39000     5.153e-12    1.358e-11  
    0.40000     5.387e-12    1.894e-11  
    0.41000     5.581e-12    2.347e-11  
    0.42000     5.780e-12    1.933e-11  
    0.43000     6.038e-12    1.995e-11  
    0.44000     6.311e-12    2.579e-11  
    0.45000     6.603e-12    2.731e-11  
    0.46000     6.974e-12    2.917e-11  
    0.47000     7.314e-12    3.709e-11  
    0.48000     7.627e-12    3.401e-11  
    0.49000     8.086e-12    3.130e-11  
    0.50000     8.415e-12    4.593e-11  
    0.51000     8.957e-12    3.289e-11  
    0.52000     9.375e-12    5.424e-11  
    0.53000     9.904e-12    4.181e-11  
    0.54000     1.049e-11    5.288e-11  
    0.55000     1.107e-11    5.815e-11  
    0.56000     1.166e-11    5.841e-11  
    0.57000     1.226e-11    5.913e-11  
    0.58000     1.300e-11    6.032e-11  
    0.59000     1.369e-11    7.335e-11  
    0.60000     1.451e-11    6.879e-11  
    0.61000     1.530e-11    8.256e-11  
    0.62000     1.623e-11    7.852e-11  
    0.63000     1.701e-11    9.305e-11  
    0.64000     1.798e-11    7.818e-11  
    0.65000     1.893e-11    9.756e-11  
    0.66000     1.992e-11    9.437e-11  
    0.67000     2.111e-11    9.884e-11  
    0.68000     2.208e-11    1.189e-10  
    0.69000     2.314e-11    9.731e-11  
    0.70000     2.437e-11    1.061e-10  
    0.71000     2.561e-11    1.230e-10  
    0.72000     2.675e-11    1.242e-10  
    0.73000     2.809e-11    1.138e-10  
    0.74000     2.941e-11    1.343e-10  
    0.75000     3.086e-11    1.321e-10  
    0.76000     3.216e-11    1.442e-10  
    0.77000     3.370e-11    1.307e-10  
    0.78000     3.513e-11    1.539e-10  
    0.79000     3.656e-11    1.428e-10  
    0.80000     3.818e-11    1.427e-10  
    0.81000     3.981e-11    1.629e-10  
    0.82000     4.131e-11    1.625e-10  
    0.83000     4.292e-11    1.505e-10  
    0.84000     4.463e-11    1.608e-10  
    0.85000     4.631e-11    1.709e-10  
    0.86000     4.798e-11    1.675e-10  
    0.87000     4.984e-11    1.674e-10  
    0.88000     5.147e-11    1.863e-10  
    0.89000     5.339e-11    1.625e-10  
    0.90000     5.517e-11    1.923e-10  
    0.91000     5.714e-11    1.778e-10  
    0.92000     5.907e-11    1.970e-10  
    0.93000     6.084e-11    1.930e-10  
    0.94000     6.280e-11    1.774e-10  
    0.95000     6.459e-11    1.954e-10  
    0.96000     6.655e-11    1.790e-10  
    0.97000     6.868e-11    1.962e-10  
    0.98000     7.063e-11    2.127e-10  
    0.99000     7.252e-11    1.953e-10  
    1.00000     7.456e-11    1.889e-10  
y
-----------------------------------------------
 ******  
 *sample netlist for bsim-mg

  ******  dc transfer curves tnom=  25.000 temp= -55.000 *****

   *** source        0:vgs =    0.1000        ***

x

        volt    param        param      
                    ids          gds    
    0.         -3.013e-16      0.       
  1.0000e-02    1.283e-10   -7.456e-09  
  2.0000e-02    2.069e-10    1.283e-08  
  3.0000e-02    2.547e-10    7.853e-09  
  4.0000e-02    2.841e-10    4.786e-09  
  5.0000e-02    3.033e-10    2.943e-09  
  6.0000e-02    3.170e-10    1.913e-09  
  7.0000e-02    3.278e-10    1.375e-09  
  8.0000e-02    3.369e-10    1.081e-09  
  9.0000e-02    3.450e-10    9.102e-10  
    0.10000     3.524e-10    8.034e-10  
    0.11000     3.593e-10    7.370e-10  
    0.12000     3.661e-10    6.995e-10  
    0.13000     3.727e-10    6.746e-10  
    0.14000     3.792e-10    6.570e-10  
    0.15000     3.857e-10    6.539e-10  
    0.16000     3.922e-10    6.486e-10  
    0.17000     3.987e-10    6.497e-10  
    0.18000     4.052e-10    6.487e-10  
    0.19000     4.118e-10    6.540e-10  
    0.20000     4.185e-10    6.598e-10  
    0.21000     4.252e-10    6.647e-10  
    0.22000     4.319e-10    6.711e-10  
    0.23000     4.388e-10    6.769e-10  
    0.24000     4.457e-10    6.835e-10  
    0.25000     4.527e-10    6.898e-10  
    0.26000     4.597e-10    6.985e-10  
    0.27000     4.669e-10    7.092e-10  
    0.28000     4.741e-10    7.161e-10  
    0.29000     4.815e-10    7.217e-10  
    0.30000     4.889e-10    7.344e-10  
    0.31000     4.963e-10    7.394e-10  
    0.32000     5.040e-10    7.468e-10  
    0.33000     5.117e-10    7.635e-10  
    0.34000     5.195e-10    7.701e-10  
    0.35000     5.273e-10    7.797e-10  
    0.36000     5.354e-10    7.868e-10  
    0.37000     5.435e-10    8.027e-10  
    0.38000     5.516e-10    8.141e-10  
    0.39000     5.600e-10    8.109e-10  
    0.40000     5.684e-10    8.402e-10  
    0.41000     5.769e-10    8.381e-10  
    0.42000     5.856e-10    8.541e-10  
    0.43000     5.944e-10    8.657e-10  
    0.44000     6.033e-10    8.833e-10  
    0.45000     6.123e-10    8.867e-10  
    0.46000     6.215e-10    9.013e-10  
    0.47000     6.308e-10    9.235e-10  
    0.48000     6.403e-10    9.241e-10  
    0.49000     6.498e-10    9.486e-10  
    0.50000     6.595e-10    9.520e-10  
    0.51000     6.693e-10    9.678e-10  
    0.52000     6.793e-10    9.793e-10  
    0.53000     6.895e-10    1.003e-09  
    0.54000     6.997e-10    1.018e-09  
    0.55000     7.101e-10    1.022e-09  
    0.56000     7.206e-10    1.038e-09  
    0.57000     7.314e-10    1.057e-09  
    0.58000     7.422e-10    1.076e-09  
    0.59000     7.533e-10    1.079e-09  
    0.60000     7.646e-10    1.114e-09  
    0.61000     7.759e-10    1.125e-09  
    0.62000     7.873e-10    1.132e-09  
    0.63000     7.990e-10    1.146e-09  
    0.64000     8.109e-10    1.167e-09  
    0.65000     8.229e-10    1.190e-09  
    0.66000     8.352e-10    1.203e-09  
    0.67000     8.475e-10    1.221e-09  
    0.68000     8.599e-10    1.229e-09  
    0.69000     8.727e-10    1.249e-09  
    0.70000     8.857e-10    1.278e-09  
    0.71000     8.987e-10    1.298e-09  
    0.72000     9.120e-10    1.302e-09  
    0.73000     9.255e-10    1.327e-09  
    0.74000     9.391e-10    1.350e-09  
    0.75000     9.530e-10    1.357e-09  
    0.76000     9.669e-10    1.393e-09  
    0.77000     9.811e-10    1.391e-09  
    0.78000     9.954e-10    1.421e-09  
    0.79000     1.010e-09    1.429e-09  
    0.80000     1.025e-09    1.461e-09  
    0.81000     1.040e-09    1.483e-09  
    0.82000     1.055e-09    1.485e-09  
    0.83000     1.070e-09    1.509e-09  
    0.84000     1.086e-09    1.533e-09  
    0.85000     1.101e-09    1.549e-09  
    0.86000     1.117e-09    1.585e-09  
    0.87000     1.133e-09    1.571e-09  
    0.88000     1.150e-09    1.620e-09  
    0.89000     1.166e-09    1.628e-09  
    0.90000     1.183e-09    1.658e-09  
    0.91000     1.200e-09    1.656e-09  
    0.92000     1.217e-09    1.688e-09  
    0.93000     1.234e-09    1.709e-09  
    0.94000     1.252e-09    1.720e-09  
    0.95000     1.269e-09    1.756e-09  
    0.96000     1.287e-09    1.768e-09  
    0.97000     1.305e-09    1.782e-09  
    0.98000     1.324e-09    1.808e-09  
    0.99000     1.342e-09    1.847e-09  
    1.00000     1.361e-09    1.841e-09  
y
-----------------------------------------------
 ******  
 *sample netlist for bsim-mg

  ******  dc transfer curves tnom=  25.000 temp= -55.000 *****

   *** source        0:vgs =    0.2000        ***

x

        volt    param        param      
                    ids          gds    
    0.         -1.135e-15      0.       
  1.0000e-02    1.738e-08   -1.361e-07  
  2.0000e-02    2.806e-08    1.738e-06  
  3.0000e-02    3.456e-08    1.068e-06  
  4.0000e-02    3.853e-08    6.505e-07  
  5.0000e-02    4.108e-08    3.971e-07  
  6.0000e-02    4.287e-08    2.545e-07  
  7.0000e-02    4.424e-08    1.789e-07  
  8.0000e-02    4.536e-08    1.371e-07  
  9.0000e-02    4.632e-08    1.120e-07  
    0.10000     4.718e-08    9.615e-08  
    0.11000     4.797e-08    8.598e-08  
    0.12000     4.872e-08    7.934e-08  
    0.13000     4.944e-08    7.495e-08  
    0.14000     5.014e-08    7.202e-08  
    0.15000     5.083e-08    7.003e-08  
    0.16000     5.151e-08    6.870e-08  
    0.17000     5.218e-08    6.780e-08  
    0.18000     5.285e-08    6.722e-08  
    0.19000     5.352e-08    6.687e-08  
    0.20000     5.418e-08    6.670e-08  
    0.21000     5.485e-08    6.665e-08  
    0.22000     5.552e-08    6.670e-08  
    0.23000     5.619e-08    6.682e-08  
    0.24000     5.686e-08    6.702e-08  
    0.25000     5.754e-08    6.726e-08  
    0.26000     5.821e-08    6.754e-08  
    0.27000     5.890e-08    6.786e-08  
    0.28000     5.958e-08    6.821e-08  
    0.29000     6.027e-08    6.859e-08  
    0.30000     6.097e-08    6.898e-08  
    0.31000     6.167e-08    6.940e-08  
    0.32000     6.237e-08    6.984e-08  
    0.33000     6.308e-08    7.029e-08  
    0.34000     6.379e-08    7.076e-08  
    0.35000     6.451e-08    7.124e-08  
    0.36000     6.523e-08    7.173e-08  
    0.37000     6.596e-08    7.224e-08  
    0.38000     6.669e-08    7.275e-08  
    0.39000     6.743e-08    7.328e-08  
    0.40000     6.817e-08    7.381e-08  
    0.41000     6.892e-08    7.435e-08  
    0.42000     6.967e-08    7.491e-08  
    0.43000     7.043e-08    7.547e-08  
    0.44000     7.120e-08    7.604e-08  
    0.45000     7.197e-08    7.662e-08  
    0.46000     7.275e-08    7.719e-08  
    0.47000     7.353e-08    7.778e-08  
    0.48000     7.432e-08    7.839e-08  
    0.49000     7.512e-08    7.899e-08  
    0.50000     7.592e-08    7.960e-08  
    0.51000     7.673e-08    8.022e-08  
    0.52000     7.754e-08    8.084e-08  
    0.53000     7.837e-08    8.148e-08  
    0.54000     7.919e-08    8.211e-08  
    0.55000     8.003e-08    8.275e-08  
    0.56000     8.087e-08    8.341e-08  
    0.57000     8.172e-08    8.407e-08  
    0.58000     8.257e-08    8.472e-08  
    0.59000     8.343e-08    8.540e-08  
    0.60000     8.430e-08    8.606e-08  
    0.61000     8.517e-08    8.674e-08  
    0.62000     8.605e-08    8.743e-08  
    0.63000     8.694e-08    8.811e-08  
    0.64000     8.784e-08    8.882e-08  
    0.65000     8.874e-08    8.953e-08  
    0.66000     8.965e-08    9.022e-08  
    0.67000     9.056e-08    9.094e-08  
    0.68000     9.149e-08    9.164e-08  
    0.69000     9.242e-08    9.239e-08  
    0.70000     9.336e-08    9.310e-08  
    0.71000     9.430e-08    9.385e-08  
    0.72000     9.526e-08    9.459e-08  
    0.73000     9.622e-08    9.531e-08  
    0.74000     9.719e-08    9.609e-08  
    0.75000     9.816e-08    9.683e-08  
    0.76000     9.915e-08    9.760e-08  
    0.77000     1.001e-07    9.838e-08  
    0.78000     1.011e-07    9.912e-08  
    0.79000     1.021e-07    9.991e-08  
    0.80000     1.032e-07    1.007e-07  
    0.81000     1.042e-07    1.015e-07  
    0.82000     1.052e-07    1.023e-07  
    0.83000     1.063e-07    1.031e-07  
    0.84000     1.073e-07    1.039e-07  
    0.85000     1.084e-07    1.047e-07  
    0.86000     1.094e-07    1.055e-07  
    0.87000     1.105e-07    1.063e-07  
    0.88000     1.116e-07    1.071e-07  
    0.89000     1.127e-07    1.080e-07  
    0.90000     1.138e-07    1.088e-07  
    0.91000     1.149e-07    1.097e-07  
    0.92000     1.160e-07    1.105e-07  
    0.93000     1.171e-07    1.114e-07  
    0.94000     1.182e-07    1.122e-07  
    0.95000     1.194e-07    1.131e-07  
    0.96000     1.205e-07    1.140e-07  
    0.97000     1.217e-07    1.148e-07  
    0.98000     1.228e-07    1.157e-07  
    0.99000     1.240e-07    1.166e-07  
    1.00000     1.252e-07    1.175e-07  
y
-----------------------------------------------
 ******  
 *sample netlist for bsim-mg

  ******  dc transfer curves tnom=  25.000 temp= -55.000 *****

   *** source        0:vgs =    0.3000        ***

x

        volt    param        param      
                    ids          gds    
    0.         -2.957e-15      0.       
  1.0000e-02    9.885e-07   -1.252e-05  
  2.0000e-02    1.743e-06    9.885e-05  
  3.0000e-02    2.295e-06    7.541e-05  
  4.0000e-02    2.684e-06    5.528e-05  
  5.0000e-02    2.949e-06    3.884e-05  
  6.0000e-02    3.132e-06    2.653e-05  
  7.0000e-02    3.263e-06    1.826e-05  
  8.0000e-02    3.363e-06    1.313e-05  
  9.0000e-02    3.442e-06    9.977e-06  
    0.10000     3.508e-06    7.950e-06  
    0.11000     3.564e-06    6.584e-06  
    0.12000     3.614e-06    5.633e-06  
    0.13000     3.659e-06    4.957e-06  
    0.14000     3.700e-06    4.468e-06  
    0.15000     3.738e-06    4.106e-06  
    0.16000     3.774e-06    3.833e-06  
    0.17000     3.809e-06    3.624e-06  
    0.18000     3.842e-06    3.460e-06  
    0.19000     3.874e-06    3.330e-06  
    0.20000     3.906e-06    3.225e-06  
    0.21000     3.936e-06    3.140e-06  
    0.22000     3.967e-06    3.069e-06  
    0.23000     3.996e-06    3.010e-06  
    0.24000     4.025e-06    2.960e-06  
    0.25000     4.054e-06    2.918e-06  
    0.26000     4.083e-06    2.881e-06  
    0.27000     4.111e-06    2.850e-06  
    0.28000     4.139e-06    2.823e-06  
    0.29000     4.167e-06    2.800e-06  
    0.30000     4.194e-06    2.780e-06  
    0.31000     4.222e-06    2.762e-06  
    0.32000     4.249e-06    2.747e-06  
    0.33000     4.276e-06    2.733e-06  
    0.34000     4.303e-06    2.722e-06  
    0.35000     4.330e-06    2.711e-06  
    0.36000     4.357e-06    2.703e-06  
    0.37000     4.384e-06    2.695e-06  
    0.38000     4.411e-06    2.688e-06  
    0.39000     4.438e-06    2.683e-06  
    0.40000     4.465e-06    2.678e-06  
    0.41000     4.491e-06    2.674e-06  
    0.42000     4.518e-06    2.671e-06  
    0.43000     4.545e-06    2.668e-06  
    0.44000     4.571e-06    2.666e-06  
    0.45000     4.598e-06    2.664e-06  
    0.46000     4.625e-06    2.663e-06  
    0.47000     4.651e-06    2.663e-06  
    0.48000     4.678e-06    2.663e-06  
    0.49000     4.704e-06    2.663e-06  
    0.50000     4.731e-06    2.663e-06  
    0.51000     4.758e-06    2.664e-06  
    0.52000     4.784e-06    2.666e-06  
    0.53000     4.811e-06    2.667e-06  
    0.54000     4.838e-06    2.669e-06  
    0.55000     4.865e-06    2.671e-06  
    0.56000     4.891e-06    2.673e-06  
    0.57000     4.918e-06    2.676e-06  
    0.58000     4.945e-06    2.678e-06  
    0.59000     4.972e-06    2.681e-06  
    0.60000     4.999e-06    2.684e-06  
    0.61000     5.026e-06    2.688e-06  
    0.62000     5.052e-06    2.691e-06  
    0.63000     5.079e-06    2.695e-06  
    0.64000     5.106e-06    2.698e-06  
    0.65000     5.134e-06    2.702e-06  
    0.66000     5.161e-06    2.706e-06  
    0.67000     5.188e-06    2.710e-06  
    0.68000     5.215e-06    2.715e-06  
    0.69000     5.242e-06    2.719e-06  
    0.70000     5.270e-06    2.723e-06  
    0.71000     5.297e-06    2.728e-06  
    0.72000     5.324e-06    2.733e-06  
    0.73000     5.352e-06    2.737e-06  
    0.74000     5.379e-06    2.742e-06  
    0.75000     5.407e-06    2.747e-06  
    0.76000     5.434e-06    2.752e-06  
    0.77000     5.462e-06    2.757e-06  
    0.78000     5.490e-06    2.762e-06  
    0.79000     5.517e-06    2.768e-06  
    0.80000     5.545e-06    2.773e-06  
    0.81000     5.573e-06    2.778e-06  
    0.82000     5.601e-06    2.784e-06  
    0.83000     5.629e-06    2.789e-06  
    0.84000     5.657e-06    2.795e-06  
    0.85000     5.685e-06    2.800e-06  
    0.86000     5.713e-06    2.806e-06  
    0.87000     5.741e-06    2.812e-06  
    0.88000     5.769e-06    2.818e-06  
    0.89000     5.798e-06    2.823e-06  
    0.90000     5.826e-06    2.829e-06  
    0.91000     5.854e-06    2.835e-06  
    0.92000     5.883e-06    2.841e-06  
    0.93000     5.911e-06    2.847e-06  
    0.94000     5.940e-06    2.853e-06  
    0.95000     5.969e-06    2.859e-06  
    0.96000     5.997e-06    2.865e-06  
    0.97000     6.026e-06    2.871e-06  
    0.98000     6.055e-06    2.877e-06  
    0.99000     6.084e-06    2.884e-06  
    1.00000     6.113e-06    2.890e-06  
y
-----------------------------------------------
 ******  
 *sample netlist for bsim-mg

  ******  dc transfer curves tnom=  25.000 temp= -55.000 *****

   *** source        0:vgs =    0.4000        ***

x

        volt    param        param      
                    ids          gds    
    0.         -8.027e-15      0.       
  1.0000e-02    4.309e-06   -6.113e-04  
  2.0000e-02    8.255e-06    4.309e-04  
  3.0000e-02    1.184e-05    3.946e-04  
  4.0000e-02    1.505e-05    3.580e-04  
  5.0000e-02    1.789e-05    3.211e-04  
  6.0000e-02    2.036e-05    2.840e-04  
  7.0000e-02    2.248e-05    2.474e-04  
  8.0000e-02    2.428e-05    2.121e-04  
  9.0000e-02    2.578e-05    1.794e-04  
    0.10000     2.703e-05    1.501e-04  
    0.11000     2.806e-05    1.249e-04  
    0.12000     2.893e-05    1.038e-04  
    0.13000     2.965e-05    8.644e-05  
    0.14000     3.026e-05    7.241e-05  
    0.15000     3.079e-05    6.117e-05  
    0.16000     3.124e-05    5.221e-05  
    0.17000     3.163e-05    4.507e-05  
    0.18000     3.198e-05    3.939e-05  
    0.19000     3.229e-05    3.485e-05  
    0.20000     3.257e-05    3.120e-05  
    0.21000     3.283e-05    2.825e-05  
    0.22000     3.307e-05    2.583e-05  
    0.23000     3.329e-05    2.385e-05  
    0.24000     3.350e-05    2.220e-05  
    0.25000     3.370e-05    2.082e-05  
    0.26000     3.388e-05    1.965e-05  
    0.27000     3.406e-05    1.866e-05  
    0.28000     3.423e-05    1.780e-05  
    0.29000     3.440e-05    1.707e-05  
    0.30000     3.455e-05    1.642e-05  
    0.31000     3.471e-05    1.586e-05  
    0.32000     3.486e-05    1.536e-05  
    0.33000     3.500e-05    1.493e-05  
    0.34000     3.514e-05    1.453e-05  
    0.35000     3.528e-05    1.418e-05  
    0.36000     3.542e-05    1.387e-05  
    0.37000     3.555e-05    1.358e-05  
    0.38000     3.568e-05    1.332e-05  
    0.39000     3.581e-05    1.308e-05  
    0.40000     3.594e-05    1.287e-05  
    0.41000     3.606e-05    1.267e-05  
    0.42000     3.619e-05    1.249e-05  
    0.43000     3.631e-05    1.232e-05  
    0.44000     3.643e-05    1.216e-05  
    0.45000     3.655e-05    1.202e-05  
    0.46000     3.666e-05    1.188e-05  
    0.47000     3.678e-05    1.176e-05  
    0.48000     3.690e-05    1.164e-05  
    0.49000     3.701e-05    1.153e-05  
    0.50000     3.712e-05    1.143e-05  
    0.51000     3.724e-05    1.133e-05  
    0.52000     3.735e-05    1.124e-05  
    0.53000     3.746e-05    1.116e-05  
    0.54000     3.757e-05    1.108e-05  
    0.55000     3.768e-05    1.100e-05  
    0.56000     3.779e-05    1.093e-05  
    0.57000     3.789e-05    1.086e-05  
    0.58000     3.800e-05    1.080e-05  
    0.59000     3.811e-05    1.074e-05  
    0.60000     3.822e-05    1.068e-05  
    0.61000     3.832e-05    1.062e-05  
    0.62000     3.843e-05    1.057e-05  
    0.63000     3.853e-05    1.052e-05  
    0.64000     3.864e-05    1.047e-05  
    0.65000     3.874e-05    1.043e-05  
    0.66000     3.884e-05    1.038e-05  
    0.67000     3.895e-05    1.034e-05  
    0.68000     3.905e-05    1.030e-05  
    0.69000     3.915e-05    1.027e-05  
    0.70000     3.925e-05    1.023e-05  
    0.71000     3.935e-05    1.019e-05  
    0.72000     3.946e-05    1.016e-05  
    0.73000     3.956e-05    1.013e-05  
    0.74000     3.966e-05    1.010e-05  
    0.75000     3.976e-05    1.007e-05  
    0.76000     3.986e-05    1.004e-05  
    0.77000     3.996e-05    1.001e-05  
    0.78000     4.006e-05    9.989e-06  
    0.79000     4.016e-05    9.964e-06  
    0.80000     4.026e-05    9.940e-06  
    0.81000     4.035e-05    9.917e-06  
    0.82000     4.045e-05    9.895e-06  
    0.83000     4.055e-05    9.873e-06  
    0.84000     4.065e-05    9.853e-06  
    0.85000     4.075e-05    9.833e-06  
    0.86000     4.085e-05    9.814e-06  
    0.87000     4.094e-05    9.796e-06  
    0.88000     4.104e-05    9.778e-06  
    0.89000     4.114e-05    9.761e-06  
    0.90000     4.124e-05    9.745e-06  
    0.91000     4.133e-05    9.729e-06  
    0.92000     4.143e-05    9.714e-06  
    0.93000     4.153e-05    9.699e-06  
    0.94000     4.162e-05    9.685e-06  
    0.95000     4.172e-05    9.671e-06  
    0.96000     4.182e-05    9.658e-06  
    0.97000     4.191e-05    9.645e-06  
    0.98000     4.201e-05    9.633e-06  
    0.99000     4.211e-05    9.621e-06  
    1.00000     4.220e-05    9.610e-06  
y
-----------------------------------------------
 ******  
 *sample netlist for bsim-mg

  ******  dc transfer curves tnom=  25.000 temp= -55.000 *****

   *** source        0:vgs =    0.5000        ***

x

        volt    param        param      
                    ids          gds    
    0.         -1.886e-14      0.       
  1.0000e-02    7.646e-06   -4.220e-03  
  2.0000e-02    1.498e-05    7.646e-04  
  3.0000e-02    2.199e-05    7.337e-04  
  4.0000e-02    2.867e-05    7.012e-04  
  5.0000e-02    3.498e-05    6.671e-04  
  6.0000e-02    4.092e-05    6.314e-04  
  7.0000e-02    4.648e-05    5.941e-04  
  8.0000e-02    5.163e-05    5.555e-04  
  9.0000e-02    5.639e-05    5.158e-04  
    0.10000     6.075e-05    4.756e-04  
    0.11000     6.471e-05    4.355e-04  
    0.12000     6.829e-05    3.962e-04  
    0.13000     7.152e-05    3.584e-04  
    0.14000     7.441e-05    3.225e-04  
    0.15000     7.699e-05    2.891e-04  
    0.16000     7.929e-05    2.584e-04  
    0.17000     8.135e-05    2.304e-04  
    0.18000     8.317e-05    2.051e-04  
    0.19000     8.479e-05    1.825e-04  
    0.20000     8.624e-05    1.624e-04  
    0.21000     8.753e-05    1.446e-04  
    0.22000     8.869e-05    1.291e-04  
    0.23000     8.973e-05    1.156e-04  
    0.24000     9.066e-05    1.039e-04  
    0.25000     9.151e-05    9.371e-05  
    0.26000     9.229e-05    8.494e-05  
    0.27000     9.299e-05    7.738e-05  
    0.28000     9.365e-05    7.084e-05  
    0.29000     9.425e-05    6.519e-05  
    0.30000     9.481e-05    6.028e-05  
    0.31000     9.533e-05    5.601e-05  
    0.32000     9.582e-05    5.229e-05  
    0.33000     9.628e-05    4.903e-05  
    0.34000     9.672e-05    4.617e-05  
    0.35000     9.714e-05    4.365e-05  
    0.36000     9.753e-05    4.141e-05  
    0.37000     9.791e-05    3.942e-05  
    0.38000     9.827e-05    3.765e-05  
    0.39000     9.861e-05    3.606e-05  
    0.40000     9.895e-05    3.464e-05  
    0.41000     9.927e-05    3.335e-05  
    0.42000     9.958e-05    3.219e-05  
    0.43000     9.988e-05    3.113e-05  
    0.44000     1.002e-04    3.017e-05  
    0.45000     1.005e-04    2.930e-05  
    0.46000     1.007e-04    2.849e-05  
    0.47000     1.010e-04    2.775e-05  
    0.48000     1.013e-04    2.707e-05  
    0.49000     1.015e-04    2.645e-05  
    0.50000     1.018e-04    2.587e-05  
    0.51000     1.020e-04    2.533e-05  
    0.52000     1.023e-04    2.483e-05  
    0.53000     1.025e-04    2.436e-05  
    0.54000     1.028e-04    2.392e-05  
    0.55000     1.030e-04    2.352e-05  
    0.56000     1.032e-04    2.313e-05  
    0.57000     1.034e-04    2.278e-05  
    0.58000     1.037e-04    2.244e-05  
    0.59000     1.039e-04    2.212e-05  
    0.60000     1.041e-04    2.182e-05  
    0.61000     1.043e-04    2.154e-05  
    0.62000     1.045e-04    2.127e-05  
    0.63000     1.047e-04    2.102e-05  
    0.64000     1.049e-04    2.078e-05  
    0.65000     1.051e-04    2.055e-05  
    0.66000     1.053e-04    2.033e-05  
    0.67000     1.055e-04    2.012e-05  
    0.68000     1.057e-04    1.992e-05  
    0.69000     1.059e-04    1.974e-05  
    0.70000     1.061e-04    1.956e-05  
    0.71000     1.063e-04    1.938e-05  
    0.72000     1.065e-04    1.922e-05  
    0.73000     1.067e-04    1.906e-05  
    0.74000     1.069e-04    1.891e-05  
    0.75000     1.071e-04    1.876e-05  
    0.76000     1.072e-04    1.863e-05  
    0.77000     1.074e-04    1.849e-05  
    0.78000     1.076e-04    1.836e-05  
    0.79000     1.078e-04    1.824e-05  
    0.80000     1.080e-04    1.812e-05  
    0.81000     1.082e-04    1.800e-05  
    0.82000     1.083e-04    1.789e-05  
    0.83000     1.085e-04    1.779e-05  
    0.84000     1.087e-04    1.768e-05  
    0.85000     1.089e-04    1.758e-05  
    0.86000     1.090e-04    1.749e-05  
    0.87000     1.092e-04    1.739e-05  
    0.88000     1.094e-04    1.730e-05  
    0.89000     1.095e-04    1.721e-05  
    0.90000     1.097e-04    1.713e-05  
    0.91000     1.099e-04    1.705e-05  
    0.92000     1.101e-04    1.697e-05  
    0.93000     1.102e-04    1.689e-05  
[...]
    0.96000     1.787e-04    2.398e-05  
    0.97000     1.789e-04    2.379e-05  
    0.98000     1.791e-04    2.360e-05  
    0.99000     1.794e-04    2.342e-05  
    1.00000     1.796e-04    2.325e-05  
y
-----------------------------------------------
 ******  
 *sample netlist for bsim-mg

  ******  dc transfer curves tnom=  25.000 temp= 100.000 *****

   *** source        0:vgs =    0.7000        ***

x

        volt    param        param      
                    ids          gds    
    0.         -3.135e-13      0.       
  1.0000e-02    9.091e-06   -1.796e-02  
  2.0000e-02    1.806e-05    9.091e-04  
  3.0000e-02    2.689e-05    8.967e-04  
  4.0000e-02    3.559e-05    8.835e-04  
  5.0000e-02    4.414e-05    8.695e-04  
  6.0000e-02    5.253e-05    8.547e-04  
  7.0000e-02    6.076e-05    8.392e-04  
  8.0000e-02    6.881e-05    8.228e-04  
  9.0000e-02    7.668e-05    8.055e-04  
    0.10000     8.437e-05    7.875e-04  
    0.11000     9.186e-05    7.686e-04  
    0.12000     9.914e-05    7.489e-04  
    0.13000     1.062e-04    7.284e-04  
    0.14000     1.131e-04    7.072e-04  
    0.15000     1.197e-04    6.854e-04  
    0.16000     1.261e-04    6.630e-04  
    0.17000     1.323e-04    6.401e-04  
    0.18000     1.382e-04    6.168e-04  
    0.19000     1.439e-04    5.932e-04  
    0.20000     1.494e-04    5.695e-04  
    0.21000     1.546e-04    5.458e-04  
    0.22000     1.596e-04    5.222e-04  
    0.23000     1.643e-04    4.989e-04  
    0.24000     1.689e-04    4.758e-04  
    0.25000     1.732e-04    4.532e-04  
    0.26000     1.773e-04    4.312e-04  
    0.27000     1.812e-04    4.097e-04  
    0.28000     1.848e-04    3.888e-04  
    0.29000     1.883e-04    3.686e-04  
    0.30000     1.916e-04    3.491e-04  
    0.31000     1.948e-04    3.303e-04  
    0.32000     1.977e-04    3.123e-04  
    0.33000     2.005e-04    2.951e-04  
    0.34000     2.031e-04    2.786e-04  
    0.35000     2.056e-04    2.629e-04  
    0.36000     2.079e-04    2.479e-04  
    0.37000     2.101e-04    2.338e-04  
    0.38000     2.122e-04    2.204e-04  
    0.39000     2.142e-04    2.078e-04  
    0.40000     2.160e-04    1.960e-04  
    0.41000     2.178e-04    1.849e-04  
    0.42000     2.194e-04    1.745e-04  
    0.43000     2.210e-04    1.647e-04  
    0.44000     2.224e-04    1.556e-04  
    0.45000     2.238e-04    1.472e-04  
    0.46000     2.252e-04    1.393e-04  
    0.47000     2.264e-04    1.319e-04  
    0.48000     2.276e-04    1.251e-04  
    0.49000     2.287e-04    1.188e-04  
    0.50000     2.298e-04    1.129e-04  
    0.51000     2.308e-04    1.074e-04  
    0.52000     2.318e-04    1.024e-04  
    0.53000     2.327e-04    9.767e-05  
    0.54000     2.336e-04    9.329e-05  
    0.55000     2.345e-04    8.923e-05  
    0.56000     2.353e-04    8.545e-05  
    0.57000     2.361e-04    8.193e-05  
    0.58000     2.368e-04    7.866e-05  
    0.59000     2.376e-04    7.561e-05  
    0.60000     2.383e-04    7.277e-05  
    0.61000     2.390e-04    7.012e-05  
    0.62000     2.396e-04    6.765e-05  
    0.63000     2.402e-04    6.533e-05  
    0.64000     2.408e-04    6.317e-05  
    0.65000     2.414e-04    6.115e-05  
    0.66000     2.420e-04    5.925e-05  
    0.67000     2.426e-04    5.747e-05  
    0.68000     2.431e-04    5.580e-05  
    0.69000     2.436e-04    5.424e-05  
    0.70000     2.442e-04    5.276e-05  
    0.71000     2.447e-04    5.137e-05  
    0.72000     2.451e-04    5.006e-05  
    0.73000     2.456e-04    4.883e-05  
    0.74000     2.461e-04    4.766e-05  
    0.75000     2.465e-04    4.656e-05  
    0.76000     2.470e-04    4.552e-05  
    0.77000     2.474e-04    4.453e-05  
    0.78000     2.479e-04    4.360e-05  
    0.79000     2.483e-04    4.271e-05  
    0.80000     2.487e-04    4.187e-05  
    0.81000     2.491e-04    4.107e-05  
    0.82000     2.495e-04    4.031e-05  
    0.83000     2.499e-04    3.959e-05  
    0.84000     2.503e-04    3.890e-05  
    0.85000     2.506e-04    3.825e-05  
    0.86000     2.510e-04    3.762e-05  
    0.87000     2.514e-04    3.702e-05  
    0.88000     2.517e-04    3.645e-05  
    0.89000     2.521e-04    3.591e-05  
    0.90000     2.524e-04    3.538e-05  
    0.91000     2.528e-04    3.488e-05  
    0.92000     2.531e-04    3.440e-05  
    0.93000     2.534e-04    3.395e-05  
    0.94000     2.538e-04    3.350e-05  
    0.95000     2.541e-04    3.308e-05  
    0.96000     2.544e-04    3.267e-05  
    0.97000     2.547e-04    3.228e-05  
    0.98000     2.551e-04    3.191e-05  
    0.99000     2.554e-04    3.155e-05  
    1.00000     2.557e-04    3.120e-05  
y
-----------------------------------------------
 ******  
 *sample netlist for bsim-mg

  ******  dc transfer curves tnom=  25.000 temp= 100.000 *****

   *** source        0:vgs =    0.8000        ***

x

        volt    param        param      
                    ids          gds    
    0.         -5.920e-13      0.       
  1.0000e-02    1.014e-05   -2.557e-02  
  2.0000e-02    2.017e-05    1.014e-03  
  3.0000e-02    3.011e-05    1.004e-03  
  4.0000e-02    3.993e-05    9.933e-04  
  5.0000e-02    4.963e-05    9.821e-04  
  6.0000e-02    5.921e-05    9.702e-04  
  7.0000e-02    6.865e-05    9.575e-04  
  8.0000e-02    7.795e-05    9.441e-04  
  9.0000e-02    8.709e-05    9.299e-04  
    0.10000     9.609e-05    9.149e-04  
    0.11000     1.049e-04    8.992e-04  
    0.12000     1.136e-04    8.827e-04  
    0.13000     1.220e-04    8.654e-04  
    0.14000     1.303e-04    8.474e-04  
    0.15000     1.384e-04    8.286e-04  
    0.16000     1.463e-04    8.092e-04  
    0.17000     1.540e-04    7.892e-04  
    0.18000     1.615e-04    7.685e-04  
    0.19000     1.687e-04    7.474e-04  
    0.20000     1.758e-04    7.258e-04  
    0.21000     1.826e-04    7.039e-04  
    0.22000     1.892e-04    6.817e-04  
    0.23000     1.955e-04    6.592e-04  
    0.24000     2.017e-04    6.367e-04  
    0.25000     2.076e-04    6.142e-04  
    0.26000     2.133e-04    5.917e-04  
    0.27000     2.188e-04    5.694e-04  
    0.28000     2.240e-04    5.474e-04  
    0.29000     2.291e-04    5.256e-04  
    0.30000     2.339e-04    5.042e-04  
    0.31000     2.385e-04    4.833e-04  
    0.32000     2.430e-04    4.627e-04  
    0.33000     2.472e-04    4.427e-04  
    0.34000     2.512e-04    4.232e-04  
    0.35000     2.551e-04    4.043e-04  
    0.36000     2.588e-04    3.859e-04  
    0.37000     2.623e-04    3.681e-04  
    0.38000     2.656e-04    3.510e-04  
    0.39000     2.688e-04    3.344e-04  
    0.40000     2.718e-04    3.184e-04  
    0.41000     2.747e-04    3.031e-04  
    0.42000     2.775e-04    2.885e-04  
    0.43000     2.801e-04    2.744e-04  
    0.44000     2.826e-04    2.610e-04  
    0.45000     2.849e-04    2.482e-04  
    0.46000     2.872e-04    2.361e-04  
    0.47000     2.893e-04    2.245e-04  
    0.48000     2.913e-04    2.136e-04  
    0.49000     2.933e-04    2.033e-04  
    0.50000     2.951e-04    1.935e-04  
    0.51000     2.969e-04    1.842e-04  
    0.52000     2.985e-04    1.755e-04  
    0.53000     3.001e-04    1.673e-04  
    0.54000     3.017e-04    1.596e-04  
    0.55000     3.031e-04    1.523e-04  
    0.56000     3.045e-04    1.455e-04  
    0.57000     3.058e-04    1.391e-04  
    0.58000     3.071e-04    1.331e-04  
    0.59000     3.083e-04    1.274e-04  
    0.60000     3.095e-04    1.221e-04  
    0.61000     3.106e-04    1.171e-04  
    0.62000     3.117e-04    1.124e-04  
    0.63000     3.127e-04    1.080e-04  
    0.64000     3.137e-04    1.038e-04  
    0.65000     3.147e-04    9.996e-05  
    0.66000     3.156e-04    9.630e-05  
    0.67000     3.165e-04    9.286e-05  
    0.68000     3.174e-04    8.963e-05  
    0.69000     3.182e-04    8.658e-05  
    0.70000     3.190e-04    8.371e-05  
    0.71000     3.198e-04    8.101e-05  
    0.72000     3.206e-04    7.846e-05  
    0.73000     3.213e-04    7.605e-05  
    0.74000     3.220e-04    7.378e-05  
    0.75000     3.227e-04    7.163e-05  
    0.76000     3.234e-04    6.960e-05  
    0.77000     3.241e-04    6.768e-05  
    0.78000     3.247e-04    6.587e-05  
    0.79000     3.253e-04    6.415e-05  
    0.80000     3.260e-04    6.251e-05  
    0.81000     3.265e-04    6.097e-05  
    0.82000     3.271e-04    5.950e-05  
    0.83000     3.277e-04    5.810e-05  
    0.84000     3.283e-04    5.678e-05  
    0.85000     3.288e-04    5.551e-05  
    0.86000     3.293e-04    5.431e-05  
    0.87000     3.298e-04    5.317e-05  
    0.88000     3.304e-04    5.208e-05  
    0.89000     3.309e-04    5.104e-05  
    0.90000     3.314e-04    5.005e-05  
    0.91000     3.318e-04    4.910e-05  
    0.92000     3.323e-04    4.820e-05  
    0.93000     3.328e-04    4.733e-05  
    0.94000     3.332e-04    4.650e-05  
    0.95000     3.337e-04    4.571e-05  
    0.96000     3.341e-04    4.495e-05  
    0.97000     3.346e-04    4.422e-05  
    0.98000     3.350e-04    4.352e-05  
    0.99000     3.354e-04    4.285e-05  
    1.00000     3.358e-04    4.221e-05  
y
-----------------------------------------------
 ******  
 *sample netlist for bsim-mg

  ******  dc transfer curves tnom=  25.000 temp= 100.000 *****

   *** source        0:vgs =    0.9000        ***

x

        volt    param        param      
                    ids          gds    
    0.         -1.112e-12      0.       
  1.0000e-02    1.095e-05   -3.358e-02  
  2.0000e-02    2.182e-05    1.095e-03  
  3.0000e-02    3.261e-05    1.087e-03  
  4.0000e-02    4.331e-05    1.079e-03  
  5.0000e-02    5.391e-05    1.070e-03  
  6.0000e-02    6.441e-05    1.060e-03  
  7.0000e-02    7.480e-05    1.050e-03  
  8.0000e-02    8.507e-05    1.039e-03  
  9.0000e-02    9.522e-05    1.027e-03  
    0.10000     1.052e-04    1.015e-03  
    0.11000     1.151e-04    1.002e-03  
    0.12000     1.249e-04    9.883e-04  
    0.13000     1.345e-04    9.738e-04  
    0.14000     1.439e-04    9.587e-04  
    0.15000     1.531e-04    9.429e-04  
    0.16000     1.622e-04    9.265e-04  
    0.17000     1.712e-04    9.094e-04  
    0.18000     1.799e-04    8.917e-04  
    0.19000     1.884e-04    8.734e-04  
    0.20000     1.968e-04    8.546e-04  
    0.21000     2.049e-04    8.353e-04  
    0.22000     2.129e-04    8.156e-04  
    0.23000     2.207e-04    7.954e-04  
    0.24000     2.282e-04    7.750e-04  
    0.25000     2.355e-04    7.542e-04  
    0.26000     2.426e-04    7.333e-04  
    0.27000     2.496e-04    7.122e-04  
    0.28000     2.563e-04    6.910e-04  
    0.29000     2.627e-04    6.699e-04  
    0.30000     2.690e-04    6.487e-04  
    0.31000     2.751e-04    6.277e-04  
    0.32000     2.810e-04    6.069e-04  
    0.33000     2.866e-04    5.863e-04  
    0.34000     2.921e-04    5.659e-04  
    0.35000     2.973e-04    5.458e-04  
    0.36000     3.024e-04    5.261e-04  
    0.37000     3.073e-04    5.067e-04  
    0.38000     3.120e-04    4.878e-04  
    0.39000     3.165e-04    4.692e-04  
    0.40000     3.208e-04    4.511e-04  
    0.41000     3.250e-04    4.335e-04  
    0.42000     3.290e-04    4.163e-04  
    0.43000     3.328e-04    3.995e-04  
    0.44000     3.365e-04    3.833e-04  
    0.45000     3.400e-04    3.676e-04  
    0.46000     3.434e-04    3.523e-04  
    0.47000     3.466e-04    3.376e-04  
    0.48000     3.497e-04    3.234e-04  
    0.49000     3.527e-04    3.097e-04  
    0.50000     3.555e-04    2.966e-04  
    0.51000     3.582e-04    2.839e-04  
    0.52000     3.608e-04    2.718e-04  
    0.53000     3.633e-04    2.602e-04  
    0.54000     3.657e-04    2.491e-04  
    0.55000     3.680e-04    2.385e-04  
    0.56000     3.702e-04    2.284e-04  
    0.57000     3.723e-04    2.187e-04  
    0.58000     3.743e-04    2.095e-04  
    0.59000     3.762e-04    2.008e-04  
    0.60000     3.781e-04    1.925e-04  
    0.61000     3.798e-04    1.846e-04  
    0.62000     3.815e-04    1.771e-04  
    0.63000     3.832e-04    1.700e-04  
    0.64000     3.847e-04    1.633e-04  
    0.65000     3.862e-04    1.569e-04  
    0.66000     3.877e-04    1.509e-04  
    0.67000     3.891e-04    1.452e-04  
    0.68000     3.904e-04    1.398e-04  
    0.69000     3.917e-04    1.346e-04  
    0.70000     3.930e-04    1.298e-04  
    0.71000     3.942e-04    1.252e-04  
    0.72000     3.954e-04    1.208e-04  
    0.73000     3.965e-04    1.167e-04  
    0.74000     3.976e-04    1.128e-04  
    0.75000     3.986e-04    1.091e-04  
    0.76000     3.997e-04    1.055e-04  
    0.77000     4.006e-04    1.022e-04  
    0.78000     4.016e-04    9.905e-05  
    0.79000     4.025e-04    9.605e-05  
    0.80000     4.034e-04    9.320e-05  
    0.81000     4.043e-04    9.049e-05  
    0.82000     4.052e-04    8.792e-05  
    0.83000     4.060e-04    8.548e-05  
    0.84000     4.068e-04    8.316e-05  
    0.85000     4.076e-04    8.095e-05  
    0.86000     4.084e-04    7.885e-05  
    0.87000     4.091e-04    7.685e-05  
    0.88000     4.099e-04    7.494e-05  
    0.89000     4.106e-04    7.312e-05  
    0.90000     4.113e-04    7.138e-05  
    0.91000     4.120e-04    6.973e-05  
    0.92000     4.126e-04    6.815e-05  
    0.93000     4.133e-04    6.664e-05  
    0.94000     4.139e-04    6.520e-05  
    0.95000     4.145e-04    6.382e-05  
    0.96000     4.151e-04    6.250e-05  
    0.97000     4.157e-04    6.123e-05  
    0.98000     4.163e-04    6.003e-05  
    0.99000     4.169e-04    5.887e-05  
    1.00000     4.175e-04    5.776e-05  
y
-----------------------------------------------
 ******  
 *sample netlist for bsim-mg

  ******  dc transfer curves tnom=  25.000 temp= 100.000 *****

   *** source        0:vgs =    1.0000        ***

x

        volt    param        param      
                    ids          gds    
    0.         -2.100e-12      0.       
  1.0000e-02    1.159e-05   -4.175e-02  
  2.0000e-02    2.311e-05    1.159e-03  
  3.0000e-02    3.457e-05    1.153e-03  
  4.0000e-02    4.596e-05    1.146e-03  
  5.0000e-02    5.727e-05    1.139e-03  
  6.0000e-02    6.849e-05    1.131e-03  
  7.0000e-02    7.963e-05    1.122e-03  
  8.0000e-02    9.067e-05    1.113e-03  
  9.0000e-02    1.016e-04    1.104e-03  
    0.10000     1.124e-04    1.094e-03  
    0.11000     1.231e-04    1.083e-03  
    0.12000     1.337e-04    1.072e-03  
    0.13000     1.442e-04    1.059e-03  
    0.14000     1.545e-04    1.047e-03  
    0.15000     1.647e-04    1.034e-03  
    0.16000     1.748e-04    1.020e-03  
    0.17000     1.847e-04    1.005e-03  
    0.18000     1.944e-04    9.903e-04  
    0.19000     2.040e-04    9.747e-04  
    0.20000     2.135e-04    9.586e-04  
    0.21000     2.227e-04    9.420e-04  
    0.22000     2.318e-04    9.248e-04  
    0.23000     2.407e-04    9.073e-04  
    0.24000     2.494e-04    8.893e-04  
    0.25000     2.579e-04    8.709e-04  
    0.26000     2.662e-04    8.522e-04  
    0.27000     2.744e-04    8.332e-04  
    0.28000     2.823e-04    8.139e-04  
    0.29000     2.901e-04    7.945e-04  
    0.30000     2.976e-04    7.748e-04  
    0.31000     3.050e-04    7.551e-04  
    0.32000     3.121e-04    7.353e-04  
    0.33000     3.191e-04    7.156e-04  
    0.34000     3.258e-04    6.958e-04  
    0.35000     3.324e-04    6.761e-04  
    0.36000     3.388e-04    6.566e-04  
    0.37000     3.450e-04    6.372e-04  
    0.38000     3.509e-04    6.179e-04  
    0.39000     3.567e-04    5.989e-04  
    0.40000     3.624e-04    5.802e-04  
    0.41000     3.678e-04    5.617e-04  
    0.42000     3.731e-04    5.436e-04  
    0.43000     3.781e-04    5.257e-04  
    0.44000     3.830e-04    5.082e-04  
    0.45000     3.878e-04    4.910e-04  
    0.46000     3.924e-04    4.742e-04  
    0.47000     3.968e-04    4.577e-04  
    0.48000     4.010e-04    4.417e-04  
    0.49000     4.052e-04    4.260e-04  
    0.50000     4.091e-04    4.107e-04  
    0.51000     4.129e-04    3.959e-04  
    0.52000     4.166e-04    3.814e-04  
    0.53000     4.201e-04    3.674e-04  
    0.54000     4.235e-04    3.538e-04  
    0.55000     4.268e-04    3.406e-04  
    0.56000     4.300e-04    3.278e-04  
    0.57000     4.330e-04    3.155e-04  
    0.58000     4.359e-04    3.036e-04  
    0.59000     4.387e-04    2.921e-04  
    0.60000     4.414e-04    2.811e-04  
    0.61000     4.440e-04    2.704e-04  
    0.62000     4.466e-04    2.602e-04  
    0.63000     4.490e-04    2.504e-04  
    0.64000     4.513e-04    2.410e-04  
    0.65000     4.535e-04    2.320e-04  
    0.66000     4.557e-04    2.234e-04  
    0.67000     4.577e-04    2.151e-04  
    0.68000     4.597e-04    2.072e-04  
    0.69000     4.617e-04    1.997e-04  
    0.70000     4.635e-04    1.925e-04  
    0.71000     4.653e-04    1.856e-04  
    0.72000     4.670e-04    1.790e-04  
    0.73000     4.687e-04    1.728e-04  
    0.74000     4.703e-04    1.668e-04  
    0.75000     4.719e-04    1.611e-04  
    0.76000     4.734e-04    1.557e-04  
    0.77000     4.748e-04    1.505e-04  
    0.78000     4.762e-04    1.455e-04  
    0.79000     4.776e-04    1.408e-04  
    0.80000     4.789e-04    1.364e-04  
    0.81000     4.802e-04    1.321e-04  
    0.82000     4.814e-04    1.280e-04  
    0.83000     4.827e-04    1.241e-04  
    0.84000     4.838e-04    1.204e-04  
    0.85000     4.850e-04    1.169e-04  
    0.86000     4.861e-04    1.135e-04  
    0.87000     4.871e-04    1.103e-04  
    0.88000     4.882e-04    1.072e-04  
    0.89000     4.892e-04    1.043e-04  
    0.90000     4.902e-04    1.015e-04  
    0.91000     4.911e-04    9.883e-05  
    0.92000     4.921e-04    9.628e-05  
    0.93000     4.930e-04    9.383e-05  
    0.94000     4.939e-04    9.150e-05  
    0.95000     4.948e-04    8.926e-05  
    0.96000     4.956e-04    8.713e-05  
    0.97000     4.964e-04    8.508e-05  
    0.98000     4.973e-04    8.312e-05  
    0.99000     4.980e-04    8.124e-05  
    1.00000     4.988e-04    7.944e-05  
y
-----------------------------------------------

          ***** job concluded
1****** HSPICE -- G-2012.06 32-BIT (May 27 2012) RHEL32 ******                  
 ******  
 *sample netlist for bsim-mg

  ******  job statistics summary tnom=  25.000 temp= 100.000 *****
  
  
 ******  Machine Information  ******
 CPU:
 model name	: Intel(R) Xeon(R) CPU           X7350  @ 2.93GHz
 cpu MHz	: 2925.869
  
 OS:
 Linux version 2.6.18-348.4.1.el5 (mockbuild@x86-007.build.bos.redhat.com) (gcc version 4.1.2 20080704 (Red Hat 4.1.2-54)) #1 SMP Fri Mar 22 05:41:51 EDT 2013


  ******  HSPICE Threads Information  ******

  Command Line Threads Count :     1
  Available CPU Count        :     8
  Actual Threads Count       :     1


  ******  Circuit Statistics  ******
  # nodes       =       6 # elements   =       4
  # resistors   =       0 # capacitors =       0 # inductors   =       0
  # mutual_inds =       0 # vccs       =       0 # vcvs        =       0
  # cccs        =       0 # ccvs       =       0 # volt_srcs   =       3
  # curr_srcs   =       0 # diodes     =       0 # bjts        =       0
  # jfets       =       0 # mosfets    =       0 # U elements  =       0
  # T elements  =       0 # W elements =       0 # B elements  =       0
  # S elements  =       0 # P elements =       0 # va device   =       1
  # vector_srcs =       0 # N elements =       0


  ******  Runtime Statistics (seconds)  ******

  analysis           time    # points   tot. iter  conv.iter
  op point           0.00           1           0
  dc sweep           0.16        1111        2233
  readin             0.01
  errchk             0.05
  setup              0.00
  output             0.00


           peak memory used        117.23 megabytes
           total cpu time            0.23 seconds
           total elapsed time        0.23 seconds
           job started at     15:13:50 07/12/2013
           job ended   at     15:14:05 07/12/2013


 lic: Release hspice token(s) 
 lic: total license checkout elapse time:        0.21(s)
