 ****** HSPICE -- G-2012.06 32-BIT (May 27 2012) RHEL32 ******                  
  Copyright (C) 2012 Synopsys, Inc. All Rights Reserved.                        
  Unpublished-rights reserved under US copyright laws.
  This program is protected by law and is subject to the
  terms and conditions of the license agreement from Synopsys.
  Use of this program is your acceptance to be bound by the
  license agreement. HSPICE is the trademark of Synopsys, Inc.
  Input File: idvdpmos.sp                                                       
  Command line options: -hdlpath ../code -i idvdpmos.sp -o idvdpmos
 lic:  
 lic: FLEXlm: v10.8 
 lic: USER:   navidp               HOSTNAME: intelr900-1.EECS.Berkeley.EDU 
 lic: HOSTID: 0022197fa591         PID:      25070 
 lic: Using FLEXlm license file: 
 lic: 1701@sunv40z-1.eecs.berkeley.edu 
 lic: Checkout 1 hspice 
 lic: License/Maintenance for hspice will expire on 19-dec-2013/2013.03 
 lic: 3(in_use)/50(total) FLOATING license(s) on SERVER sunv40z-1.eecs.berkeley.
 lic:   
 Init: read install configuration file: /tools/synopsys/hspice/G-2012.06/hspice/meta.cfg
 **info** *pvaI* Module (bsimcmg): 4 unexpanded port, 0 init, 2075 behav, 47 contrib, 63/3242 expr(s)

 **info** *pvaI* Resizing DB size for v count = 1

 **info** *pvaI* Resizing DB size for v count = 2

 **info** *pvaI*        Has DIS (ST SB), 4 afCount

 **info** *pvaI*        0 const-G and 0 const-C, Has switch branch.

 **info** *pvaI* Module (bsimcmg): generated 0 flow node(s) during compilation.

 **info** *pvaI* #### Total 697 line-size(s), 63 expr(s), 47 contr(s), 0 init(s), 2075 behav(s), 4 port(s)

 Loading pVA library idvdpmos.pvadir/pvaRTL_linux.so...
1****** HSPICE -- G-2012.06 32-BIT (May 27 2012) RHEL32 ******                  
 ******  
 *sample netlist for bsim-mg

  ******  circuit name directory
 circuit number to circuit name directory
   number circuitname                     definition         multiplier
        0 main circuit
        1 x1.                             bsimcmg(va)        1.00 
 **info** *pvaI* Creating Verilog-A module 'bsimcmg' for X1

  
      
 *****************************************************************
 ******  option summary
 ******
 runlvl  = 3         bypass  = 2         
  Opening plot unit= 15
 file=idvdpmos.pa0                                                             

 ******  
 *sample netlist for bsim-mg

  ******  dc transfer curves tnom=  25.000 temp=  27.000 *****

   *** source        0:vgs =    0.            ***

x

        volt    param        param      
                    ids         -gds    
    0.            0.           0.       
 -1.0000e-02    1.126e-12      0.       
 -2.0000e-02    1.900e-12    1.126e-10  
 -3.0000e-02    2.423e-12    7.736e-11  
 -4.0000e-02    2.771e-12    5.230e-11  
 -5.0000e-02    3.013e-12    3.475e-11  
 -6.0000e-02    3.183e-12    2.422e-11  
 -7.0000e-02    3.300e-12    1.702e-11  
 -8.0000e-02    3.396e-12    1.168e-11  
 -9.0000e-02    3.477e-12    9.663e-12  
   -0.10000     3.556e-12    8.015e-12  
   -0.11000     3.613e-12    7.901e-12  
   -0.12000     3.656e-12    5.741e-12  
   -0.13000     3.704e-12    4.263e-12  
   -0.14000     3.747e-12    4.832e-12  
   -0.15000     3.803e-12    4.320e-12  
   -0.16000     3.856e-12    5.571e-12  
   -0.17000     3.879e-12    5.343e-12  
   -0.18000     3.920e-12    2.274e-12  
   -0.19000     3.989e-12    4.093e-12  
   -0.20000     4.007e-12    6.935e-12  
   -0.21000     4.047e-12    1.819e-12  
   -0.22000     4.087e-12    3.979e-12  
   -0.23000     4.127e-12    3.979e-12  
   -0.24000     4.167e-12    3.979e-12  
   -0.25000     4.206e-12    3.979e-12  
   -0.26000     4.247e-12    3.979e-12  
   -0.27000     4.288e-12    4.093e-12  
   -0.28000     4.329e-12    4.093e-12  
   -0.29000     4.370e-12    4.093e-12  
   -0.30000     4.388e-12    4.093e-12  
   -0.31000     4.430e-12    1.819e-12  
   -0.32000     4.472e-12    4.206e-12  
   -0.33000     4.515e-12    4.206e-12  
   -0.34000     4.595e-12    4.206e-12  
   -0.35000     4.638e-12    8.072e-12  
   -0.36000     4.682e-12    4.320e-12  
   -0.37000     4.668e-12    4.320e-12  
   -0.38000     4.754e-12   -1.364e-12  
   -0.39000     4.799e-12    8.640e-12  
   -0.40000     4.843e-12    4.434e-12  
   -0.41000     4.877e-12    4.434e-12  
   -0.42000     4.923e-12    3.411e-12  
   -0.43000     4.968e-12    4.547e-12  
   -0.44000     5.064e-12    4.547e-12  
   -0.45000     5.053e-12    9.550e-12  
   -0.46000     5.100e-12   -1.023e-12  
   -0.47000     5.200e-12    4.661e-12  
   -0.48000     5.248e-12    1.000e-11  
   -0.49000     5.239e-12    4.775e-12  
   -0.50000     5.343e-12   -9.095e-13  
   -0.51000     5.392e-12    1.046e-11  
   -0.52000     5.384e-12    4.889e-12  
   -0.53000     5.493e-12   -7.958e-13  
   -0.54000     5.543e-12    1.091e-11  
   -0.55000     5.593e-12    5.002e-12  
   -0.56000     5.593e-12    5.002e-12  
   -0.57000     5.645e-12   -2.100e-24  
   -0.58000     5.762e-12    5.116e-12  
   -0.59000     5.814e-12    1.171e-11  
   -0.60000     5.866e-12    5.230e-12  
   -0.61000     5.874e-12    5.230e-12  
   -0.62000     5.928e-12    7.958e-13  
   -0.63000     5.981e-12    5.343e-12  
   -0.64000     6.107e-12    5.343e-12  
   -0.65000     6.048e-12    1.262e-11  
   -0.66000     6.178e-12   -5.912e-12  
   -0.67000     6.233e-12    1.296e-11  
   -0.68000     6.289e-12    5.571e-12  
   -0.69000     6.310e-12    5.571e-12  
   -0.70000     6.366e-12    2.046e-12  
   -0.71000     6.504e-12    5.684e-12  
   -0.72000     6.562e-12    1.376e-11  
   -0.73000     6.589e-12    5.798e-12  
   -0.74000     6.648e-12    2.728e-12  
   -0.75000     6.679e-12    5.912e-12  
   -0.76000     6.798e-12    3.070e-12  
   -0.77000     6.809e-12    1.194e-11  
   -0.78000     6.912e-12    1.023e-12  
   -0.79000     6.909e-12    1.035e-11  
   -0.80000     6.980e-12   -3.411e-13  
   -0.81000     7.155e-12    7.162e-12  
   -0.82000     7.096e-12    1.751e-11  
   -0.83000     7.242e-12   -5.912e-12  
   -0.84000     7.294e-12    1.455e-11  
   -0.85000     7.446e-12    5.230e-12  
   -0.86000     7.494e-12    1.523e-11  
   -0.87000     7.668e-12    4.775e-12  
   -0.88000     7.958e-12    1.739e-11  
   -0.89000     8.055e-12    2.899e-11  
   -0.90000     8.288e-12    9.663e-12  
   -0.91000     8.444e-12    2.331e-11  
   -0.92000     8.731e-12    1.558e-11  
   -0.93000     8.946e-12    2.876e-11  
   -0.94000     9.309e-12    2.149e-11  
   -0.95000     9.601e-12    3.627e-11  
   -0.96000     9.932e-12    2.922e-11  
   -0.97000     1.031e-11    3.308e-11  
   -0.98000     1.062e-11    3.763e-11  
   -0.99000     1.108e-11    3.081e-11  
   -1.00000     1.148e-11    4.661e-11  
y
-----------------------------------------------
 ******  
 *sample netlist for bsim-mg

  ******  dc transfer curves tnom=  25.000 temp=  27.000 *****

   *** source        0:vgs =   -0.1000        ***

x

        volt    param        param      
                    ids         -gds    
    0.         -1.330e-14      0.       
 -1.0000e-02    4.088e-11   -1.150e-09  
 -2.0000e-02    6.891e-11    4.089e-09  
 -3.0000e-02    8.777e-11    2.803e-09  
 -4.0000e-02    1.004e-10    1.886e-09  
 -5.0000e-02    1.090e-10    1.266e-09  
 -6.0000e-02    1.151e-10    8.603e-10  
 -7.0000e-02    1.194e-10    6.022e-10  
 -8.0000e-02    1.228e-10    4.386e-10  
 -9.0000e-02    1.254e-10    3.327e-10  
   -0.10000     1.277e-10    2.665e-10  
   -0.11000     1.296e-10    2.237e-10  
   -0.12000     1.313e-10    1.917e-10  
   -0.13000     1.329e-10    1.749e-10  
   -0.14000     1.344e-10    1.609e-10  
   -0.15000     1.359e-10    1.487e-10  
   -0.16000     1.373e-10    1.437e-10  
   -0.17000     1.386e-10    1.392e-10  
   -0.18000     1.400e-10    1.380e-10  
   -0.19000     1.413e-10    1.320e-10  
   -0.20000     1.426e-10    1.318e-10  
   -0.21000     1.439e-10    1.309e-10  
   -0.22000     1.452e-10    1.301e-10  
   -0.23000     1.465e-10    1.271e-10  
   -0.24000     1.477e-10    1.306e-10  
   -0.25000     1.491e-10    1.274e-10  
   -0.26000     1.504e-10    1.309e-10  
   -0.27000     1.517e-10    1.352e-10  
   -0.28000     1.529e-10    1.259e-10  
   -0.29000     1.543e-10    1.283e-10  
   -0.30000     1.556e-10    1.342e-10  
   -0.31000     1.569e-10    1.293e-10  
   -0.32000     1.582e-10    1.328e-10  
   -0.33000     1.596e-10    1.307e-10  
   -0.34000     1.610e-10    1.381e-10  
   -0.35000     1.623e-10    1.365e-10  
   -0.36000     1.636e-10    1.292e-10  
   -0.37000     1.650e-10    1.391e-10  
   -0.38000     1.664e-10    1.362e-10  
   -0.39000     1.678e-10    1.422e-10  
   -0.40000     1.692e-10    1.340e-10  
   -0.41000     1.706e-10    1.443e-10  
   -0.42000     1.720e-10    1.377e-10  
   -0.43000     1.735e-10    1.425e-10  
   -0.44000     1.749e-10    1.465e-10  
   -0.45000     1.763e-10    1.409e-10  
   -0.46000     1.778e-10    1.458e-10  
   -0.47000     1.792e-10    1.446e-10  
   -0.48000     1.807e-10    1.388e-10  
   -0.49000     1.822e-10    1.549e-10  
   -0.50000     1.837e-10    1.488e-10  
   -0.51000     1.852e-10    1.484e-10  
   -0.52000     1.868e-10    1.537e-10  
   -0.53000     1.882e-10    1.590e-10  
   -0.54000     1.898e-10    1.359e-10  
   -0.55000     1.914e-10    1.641e-10  
   -0.56000     1.928e-10    1.581e-10  
   -0.57000     1.945e-10    1.408e-10  
   -0.58000     1.961e-10    1.641e-10  
   -0.59000     1.976e-10    1.632e-10  
   -0.60000     1.992e-10    1.527e-10  
   -0.61000     2.009e-10    1.630e-10  
   -0.62000     2.024e-10    1.642e-10  
   -0.63000     2.040e-10    1.515e-10  
   -0.64000     2.057e-10    1.643e-10  
   -0.65000     2.074e-10    1.702e-10  
   -0.66000     2.091e-10    1.647e-10  
   -0.67000     2.106e-10    1.706e-10  
   -0.68000     2.123e-10    1.537e-10  
   -0.69000     2.141e-10    1.711e-10  
   -0.70000     2.157e-10    1.770e-10  
   -0.71000     2.175e-10    1.603e-10  
   -0.72000     2.193e-10    1.776e-10  
   -0.73000     2.210e-10    1.805e-10  
   -0.74000     2.227e-10    1.671e-10  
   -0.75000     2.246e-10    1.732e-10  
   -0.76000     2.262e-10    1.878e-10  
   -0.77000     2.281e-10    1.628e-10  
   -0.78000     2.299e-10    1.891e-10  
   -0.79000     2.317e-10    1.841e-10  
   -0.80000     2.336e-10    1.791e-10  
   -0.81000     2.353e-10    1.878e-10  
   -0.82000     2.373e-10    1.692e-10  
   -0.83000     2.391e-10    1.984e-10  
   -0.84000     2.410e-10    1.820e-10  
   -0.85000     2.430e-10    1.865e-10  
   -0.86000     2.448e-10    2.043e-10  
   -0.87000     2.467e-10    1.764e-10  
   -0.88000     2.487e-10    1.923e-10  
   -0.89000     2.507e-10    1.970e-10  
   -0.90000     2.526e-10    2.007e-10  
   -0.91000     2.545e-10    1.959e-10  
   -0.92000     2.566e-10    1.889e-10  
   -0.93000     2.586e-10    2.063e-10  
   -0.94000     2.607e-10    2.005e-10  
   -0.95000     2.628e-10    2.075e-10  
   -0.96000     2.649e-10    2.149e-10  
   -0.97000     2.671e-10    2.109e-10  
   -0.98000     2.693e-10    2.194e-10  
   -0.99000     2.716e-10    2.171e-10  
   -1.00000     2.736e-10    2.265e-10  
y
-----------------------------------------------
 ******  
 *sample netlist for bsim-mg

  ******  dc transfer curves tnom=  25.000 temp=  27.000 *****

   *** source        0:vgs =   -0.2000        ***

x

        volt    param        param      
                    ids         -gds    
    0.         -2.015e-14      0.       
 -1.0000e-02    1.479e-09   -2.736e-08  
 -2.0000e-02    2.493e-09    1.479e-07  
 -3.0000e-02    3.176e-09    1.014e-07  
 -4.0000e-02    3.633e-09    6.826e-08  
 -5.0000e-02    3.944e-09    4.574e-08  
 -6.0000e-02    4.159e-09    3.101e-08  
 -7.0000e-02    4.315e-09    2.158e-08  
 -8.0000e-02    4.433e-09    1.559e-08  
 -9.0000e-02    4.526e-09    1.177e-08  
   -0.10000     4.603e-09    9.300e-09  
   -0.11000     4.669e-09    7.683e-09  
   -0.12000     4.727e-09    6.596e-09  
   -0.13000     4.781e-09    5.857e-09  
   -0.14000     4.831e-09    5.340e-09  
   -0.15000     4.878e-09    4.978e-09  
   -0.16000     4.923e-09    4.711e-09  
   -0.17000     4.967e-09    4.522e-09  
   -0.18000     5.009e-09    4.384e-09  
   -0.19000     5.052e-09    4.280e-09  
   -0.20000     5.093e-09    4.208e-09  
   -0.21000     5.134e-09    4.154e-09  
   -0.22000     5.175e-09    4.114e-09  
   -0.23000     5.216e-09    4.089e-09  
   -0.24000     5.256e-09    4.070e-09  
   -0.25000     5.297e-09    4.058e-09  
   -0.26000     5.337e-09    4.053e-09  
   -0.27000     5.378e-09    4.053e-09  
   -0.28000     5.419e-09    4.053e-09  
   -0.29000     5.459e-09    4.065e-09  
   -0.30000     5.500e-09    4.077e-09  
   -0.31000     5.541e-09    4.081e-09  
   -0.32000     5.582e-09    4.094e-09  
   -0.33000     5.624e-09    4.109e-09  
   -0.34000     5.665e-09    4.130e-09  
   -0.35000     5.707e-09    4.134e-09  
   -0.36000     5.748e-09    4.169e-09  
   -0.37000     5.790e-09    4.173e-09  
   -0.38000     5.832e-09    4.193e-09  
   -0.39000     5.875e-09    4.222e-09  
   -0.40000     5.917e-09    4.240e-09  
   -0.41000     5.960e-09    4.254e-09  
   -0.42000     6.003e-09    4.276e-09  
   -0.43000     6.046e-09    4.293e-09  
   -0.44000     6.090e-09    4.325e-09  
   -0.45000     6.133e-09    4.348e-09  
   -0.46000     6.177e-09    4.360e-09  
   -0.47000     6.221e-09    4.395e-09  
   -0.48000     6.266e-09    4.411e-09  
   -0.49000     6.310e-09    4.436e-09  
   -0.50000     6.355e-09    4.463e-09  
   -0.51000     6.400e-09    4.480e-09  
   -0.52000     6.446e-09    4.506e-09  
   -0.53000     6.491e-09    4.533e-09  
   -0.54000     6.537e-09    4.557e-09  
   -0.55000     6.583e-09    4.582e-09  
   -0.56000     6.629e-09    4.604e-09  
   -0.57000     6.676e-09    4.628e-09  
   -0.58000     6.723e-09    4.658e-09  
   -0.59000     6.770e-09    4.685e-09  
   -0.60000     6.817e-09    4.714e-09  
   -0.61000     6.865e-09    4.730e-09  
   -0.62000     6.913e-09    4.758e-09  
   -0.63000     6.961e-09    4.788e-09  
   -0.64000     7.009e-09    4.812e-09  
   -0.65000     7.058e-09    4.825e-09  
   -0.66000     7.107e-09    4.879e-09  
   -0.67000     7.156e-09    4.888e-09  
   -0.68000     7.205e-09    4.909e-09  
   -0.69000     7.255e-09    4.951e-09  
   -0.70000     7.305e-09    4.964e-09  
   -0.71000     7.355e-09    5.009e-09  
   -0.72000     7.406e-09    5.025e-09  
   -0.73000     7.457e-09    5.064e-09  
   -0.74000     7.508e-09    5.082e-09  
   -0.75000     7.559e-09    5.109e-09  
   -0.76000     7.611e-09    5.141e-09  
   -0.77000     7.663e-09    5.163e-09  
   -0.78000     7.715e-09    5.197e-09  
   -0.79000     7.768e-09    5.219e-09  
   -0.80000     7.820e-09    5.255e-09  
   -0.81000     7.874e-09    5.282e-09  
   -0.82000     7.927e-09    5.319e-09  
   -0.83000     7.981e-09    5.348e-09  
   -0.84000     8.035e-09    5.355e-09  
   -0.85000     8.089e-09    5.409e-09  
   -0.86000     8.144e-09    5.428e-09  
   -0.87000     8.198e-09    5.462e-09  
   -0.88000     8.254e-09    5.474e-09  
   -0.89000     8.309e-09    5.533e-09  
   -0.90000     8.365e-09    5.546e-09  
   -0.91000     8.421e-09    5.573e-09  
   -0.92000     8.477e-09    5.601e-09  
   -0.93000     8.534e-09    5.652e-09  
   -0.94000     8.591e-09    5.661e-09  
   -0.95000     8.648e-09    5.702e-09  
   -0.96000     8.706e-09    5.734e-09  
   -0.97000     8.764e-09    5.767e-09  
   -0.98000     8.822e-09    5.800e-09  
   -0.99000     8.881e-09    5.823e-09  
   -1.00000     8.940e-09    5.848e-09  
y
-----------------------------------------------
 ******  
 *sample netlist for bsim-mg

  ******  dc transfer curves tnom=  25.000 temp=  27.000 *****

   *** source        0:vgs =   -0.3000        ***

x

        volt    param        param      
                    ids         -gds    
    0.         -2.930e-14      0.       
 -1.0000e-02    4.891e-08   -8.940e-07  
 -2.0000e-02    8.328e-08    4.891e-06  
 -3.0000e-02    1.068e-07    3.437e-06  
 -4.0000e-02    1.228e-07    2.355e-06  
 -5.0000e-02    1.337e-07    1.596e-06  
 -6.0000e-02    1.412e-07    1.088e-06  
 -7.0000e-02    1.467e-07    7.566e-07  
 -8.0000e-02    1.507e-07    5.418e-07  
 -9.0000e-02    1.538e-07    4.027e-07  
   -0.10000     1.563e-07    3.116e-07  
   -0.11000     1.584e-07    2.510e-07  
   -0.12000     1.602e-07    2.098e-07  
   -0.13000     1.618e-07    1.812e-07  
   -0.14000     1.633e-07    1.610e-07  
   -0.15000     1.647e-07    1.464e-07  
   -0.16000     1.659e-07    1.356e-07  
   -0.17000     1.671e-07    1.277e-07  
   -0.18000     1.683e-07    1.216e-07  
   -0.19000     1.695e-07    1.170e-07  
   -0.20000     1.706e-07    1.134e-07  
   -0.21000     1.716e-07    1.107e-07  
   -0.22000     1.727e-07    1.085e-07  
   -0.23000     1.738e-07    1.068e-07  
   -0.24000     1.748e-07    1.054e-07  
   -0.25000     1.758e-07    1.043e-07  
   -0.26000     1.769e-07    1.035e-07  
   -0.27000     1.779e-07    1.028e-07  
   -0.28000     1.789e-07    1.023e-07  
   -0.29000     1.799e-07    1.019e-07  
   -0.30000     1.809e-07    1.016e-07  
   -0.31000     1.820e-07    1.014e-07  
   -0.32000     1.830e-07    1.013e-07  
   -0.33000     1.840e-07    1.012e-07  
   -0.34000     1.850e-07    1.012e-07  
   -0.35000     1.860e-07    1.012e-07  
   -0.36000     1.870e-07    1.012e-07  
   -0.37000     1.880e-07    1.013e-07  
   -0.38000     1.890e-07    1.014e-07  
   -0.39000     1.901e-07    1.015e-07  
   -0.40000     1.911e-07    1.017e-07  
   -0.41000     1.921e-07    1.018e-07  
   -0.42000     1.931e-07    1.020e-07  
   -0.43000     1.941e-07    1.022e-07  
   -0.44000     1.952e-07    1.024e-07  
   -0.45000     1.962e-07    1.026e-07  
   -0.46000     1.972e-07    1.028e-07  
   -0.47000     1.983e-07    1.031e-07  
   -0.48000     1.993e-07    1.033e-07  
   -0.49000     2.003e-07    1.036e-07  
   -0.50000     2.014e-07    1.038e-07  
   -0.51000     2.024e-07    1.041e-07  
   -0.52000     2.035e-07    1.044e-07  
   -0.53000     2.045e-07    1.047e-07  
   -0.54000     2.056e-07    1.049e-07  
   -0.55000     2.066e-07    1.052e-07  
   -0.56000     2.077e-07    1.055e-07  
   -0.57000     2.087e-07    1.058e-07  
   -0.58000     2.098e-07    1.061e-07  
   -0.59000     2.109e-07    1.064e-07  
   -0.60000     2.119e-07    1.067e-07  
   -0.61000     2.130e-07    1.070e-07  
   -0.62000     2.141e-07    1.073e-07  
   -0.63000     2.152e-07    1.076e-07  
   -0.64000     2.163e-07    1.079e-07  
   -0.65000     2.173e-07    1.083e-07  
   -0.66000     2.184e-07    1.086e-07  
   -0.67000     2.195e-07    1.089e-07  
   -0.68000     2.206e-07    1.092e-07  
   -0.69000     2.217e-07    1.095e-07  
   -0.70000     2.228e-07    1.099e-07  
   -0.71000     2.239e-07    1.102e-07  
   -0.72000     2.250e-07    1.105e-07  
   -0.73000     2.261e-07    1.108e-07  
   -0.74000     2.273e-07    1.112e-07  
   -0.75000     2.284e-07    1.115e-07  
   -0.76000     2.295e-07    1.119e-07  
   -0.77000     2.306e-07    1.122e-07  
   -0.78000     2.318e-07    1.125e-07  
   -0.79000     2.329e-07    1.129e-07  
   -0.80000     2.340e-07    1.132e-07  
   -0.81000     2.352e-07    1.135e-07  
   -0.82000     2.363e-07    1.139e-07  
   -0.83000     2.375e-07    1.142e-07  
   -0.84000     2.386e-07    1.146e-07  
   -0.85000     2.398e-07    1.149e-07  
   -0.86000     2.409e-07    1.153e-07  
   -0.87000     2.421e-07    1.156e-07  
   -0.88000     2.432e-07    1.160e-07  
   -0.89000     2.444e-07    1.163e-07  
   -0.90000     2.456e-07    1.166e-07  
   -0.91000     2.467e-07    1.170e-07  
   -0.92000     2.479e-07    1.174e-07  
   -0.93000     2.491e-07    1.177e-07  
   -0.94000     2.503e-07    1.181e-07  
   -0.95000     2.515e-07    1.184e-07  
   -0.96000     2.527e-07    1.188e-07  
   -0.97000     2.539e-07    1.191e-07  
   -0.98000     2.551e-07    1.195e-07  
   -0.99000     2.563e-07    1.198e-07  
   -1.00000     2.575e-07    1.202e-07  
y
-----------------------------------------------
 ******  
 *sample netlist for bsim-mg

  ******  dc transfer curves tnom=  25.000 temp=  27.000 *****

   *** source        0:vgs =   -0.4000        ***

x

        volt    param        param      
                    ids         -gds    
    0.         -1.594e-13      0.       
 -1.0000e-02    6.549e-07   -2.575e-05  
 -2.0000e-02    1.196e-06    6.549e-05  
 -3.0000e-02    1.631e-06    5.415e-05  
 -4.0000e-02    1.969e-06    4.342e-05  
 -5.0000e-02    2.229e-06    3.389e-05  
 -6.0000e-02    2.426e-06    2.595e-05  
 -7.0000e-02    2.575e-06    1.969e-05  
 -8.0000e-02    2.690e-06    1.495e-05  
 -9.0000e-02    2.778e-06    1.144e-05  
   -0.10000     2.848e-06    8.861e-06  
   -0.11000     2.904e-06    6.982e-06  
   -0.12000     2.950e-06    5.608e-06  
   -0.13000     2.989e-06    4.594e-06  
   -0.14000     3.021e-06    3.840e-06  
   -0.15000     3.050e-06    3.271e-06  
   -0.16000     3.075e-06    2.836e-06  
   -0.17000     3.097e-06    2.499e-06  
   -0.18000     3.117e-06    2.235e-06  
   -0.19000     3.136e-06    2.026e-06  
   -0.20000     3.153e-06    1.857e-06  
   -0.21000     3.169e-06    1.721e-06  
   -0.22000     3.184e-06    1.609e-06  
   -0.23000     3.199e-06    1.516e-06  
   -0.24000     3.212e-06    1.438e-06  
   -0.25000     3.226e-06    1.373e-06  
   -0.26000     3.238e-06    1.317e-06  
   -0.27000     3.251e-06    1.269e-06  
   -0.28000     3.262e-06    1.229e-06  
   -0.29000     3.274e-06    1.193e-06  
   -0.30000     3.285e-06    1.162e-06  
   -0.31000     3.297e-06    1.135e-06  
   -0.32000     3.307e-06    1.111e-06  
   -0.33000     3.318e-06    1.090e-06  
   -0.34000     3.329e-06    1.072e-06  
   -0.35000     3.339e-06    1.055e-06  
   -0.36000     3.349e-06    1.040e-06  
   -0.37000     3.360e-06    1.027e-06  
   -0.38000     3.370e-06    1.014e-06  
   -0.39000     3.379e-06    1.004e-06  
   -0.40000     3.389e-06    9.937e-07  
   -0.41000     3.399e-06    9.847e-07  
   -0.42000     3.409e-06    9.765e-07  
   -0.43000     3.418e-06    9.691e-07  
   -0.44000     3.428e-06    9.622e-07  
   -0.45000     3.437e-06    9.560e-07  
   -0.46000     3.447e-06    9.503e-07  
   -0.47000     3.456e-06    9.450e-07  
   -0.48000     3.466e-06    9.401e-07  
   -0.49000     3.475e-06    9.356e-07  
   -0.50000     3.484e-06    9.315e-07  
   -0.51000     3.494e-06    9.277e-07  
   -0.52000     3.503e-06    9.242e-07  
   -0.53000     3.512e-06    9.209e-07  
   -0.54000     3.521e-06    9.178e-07  
   -0.55000     3.530e-06    9.151e-07  
   -0.56000     3.539e-06    9.124e-07  
   -0.57000     3.548e-06    9.100e-07  
   -0.58000     3.557e-06    9.078e-07  
   -0.59000     3.566e-06    9.057e-07  
   -0.60000     3.575e-06    9.038e-07  
   -0.61000     3.584e-06    9.020e-07  
   -0.62000     3.593e-06    9.003e-07  
   -0.63000     3.602e-06    8.988e-07  
   -0.64000     3.611e-06    8.973e-07  
   -0.65000     3.620e-06    8.960e-07  
   -0.66000     3.629e-06    8.947e-07  
   -0.67000     3.638e-06    8.936e-07  
   -0.68000     3.647e-06    8.925e-07  
   -0.69000     3.656e-06    8.916e-07  
   -0.70000     3.665e-06    8.907e-07  
   -0.71000     3.674e-06    8.898e-07  
   -0.72000     3.683e-06    8.891e-07  
   -0.73000     3.692e-06    8.884e-07  
   -0.74000     3.700e-06    8.878e-07  
   -0.75000     3.709e-06    8.872e-07  
   -0.76000     3.718e-06    8.866e-07  
   -0.77000     3.727e-06    8.862e-07  
   -0.78000     3.736e-06    8.857e-07  
   -0.79000     3.745e-06    8.854e-07  
   -0.80000     3.754e-06    8.850e-07  
   -0.81000     3.762e-06    8.847e-07  
   -0.82000     3.771e-06    8.845e-07  
   -0.83000     3.780e-06    8.842e-07  
   -0.84000     3.789e-06    8.841e-07  
   -0.85000     3.798e-06    8.839e-07  
   -0.86000     3.807e-06    8.838e-07  
   -0.87000     3.815e-06    8.837e-07  
   -0.88000     3.824e-06    8.836e-07  
   -0.89000     3.833e-06    8.836e-07  
   -0.90000     3.842e-06    8.836e-07  
   -0.91000     3.851e-06    8.837e-07  
   -0.92000     3.860e-06    8.837e-07  
   -0.93000     3.868e-06    8.838e-07  
   -0.94000     3.877e-06    8.839e-07  
   -0.95000     3.886e-06    8.840e-07  
   -0.96000     3.895e-06    8.841e-07  
   -0.97000     3.904e-06    8.843e-07  
   -0.98000     3.913e-06    8.845e-07  
   -0.99000     3.922e-06    8.847e-07  
   -1.00000     3.930e-06    8.849e-07  
y
-----------------------------------------------
 ******  
 *sample netlist for bsim-mg

  ******  dc transfer curves tnom=  25.000 temp=  27.000 *****

   *** source        0:vgs =   -0.5000        ***

x

        volt    param        param      
                    ids         -gds    
    0.         -3.182e-13      0.       
 -1.0000e-02    2.070e-06   -3.930e-04  
 -2.0000e-02    3.974e-06    2.070e-04  
 -3.0000e-02    5.707e-06    1.904e-04  
 -4.0000e-02    7.264e-06    1.733e-04  
 -5.0000e-02    8.649e-06    1.558e-04  
 -6.0000e-02    9.866e-06    1.384e-04  
 -7.0000e-02    1.093e-05    1.217e-04  
 -8.0000e-02    1.185e-05    1.062e-04  
 -9.0000e-02    1.264e-05    9.202e-05  
   -0.10000     1.333e-05    7.947e-05  
   -0.11000     1.392e-05    6.852e-05  
   -0.12000     1.443e-05    5.908e-05  
   -0.13000     1.487e-05    5.101e-05  
   -0.14000     1.525e-05    4.417e-05  
   -0.15000     1.559e-05    3.838e-05  
   -0.16000     1.588e-05    3.351e-05  
   -0.17000     1.614e-05    2.940e-05  
   -0.18000     1.637e-05    2.595e-05  
   -0.19000     1.658e-05    2.304e-05  
   -0.20000     1.676e-05    2.058e-05  
   -0.21000     1.693e-05    1.850e-05  
   -0.22000     1.708e-05    1.673e-05  
   -0.23000     1.722e-05    1.522e-05  
   -0.24000     1.735e-05    1.393e-05  
   -0.25000     1.747e-05    1.281e-05  
   -0.26000     1.758e-05    1.185e-05  
   -0.27000     1.768e-05    1.102e-05  
   -0.28000     1.778e-05    1.029e-05  
   -0.29000     1.787e-05    9.646e-06  
   -0.30000     1.796e-05    9.082e-06  
   -0.31000     1.804e-05    8.584e-06  
   -0.32000     1.811e-05    8.141e-06  
   -0.33000     1.819e-05    7.747e-06  
   -0.34000     1.826e-05    7.393e-06  
   -0.35000     1.833e-05    7.076e-06  
   -0.36000     1.839e-05    6.790e-06  
   -0.37000     1.846e-05    6.532e-06  
   -0.38000     1.852e-05    6.297e-06  
   -0.39000     1.857e-05    6.084e-06  
   -0.40000     1.863e-05    5.889e-06  
   -0.41000     1.869e-05    5.711e-06  
   -0.42000     1.874e-05    5.547e-06  
   -0.43000     1.879e-05    5.396e-06  
   -0.44000     1.885e-05    5.258e-06  
   -0.45000     1.890e-05    5.129e-06  
   -0.46000     1.894e-05    5.010e-06  
   -0.47000     1.899e-05    4.900e-06  
   -0.48000     1.904e-05    4.797e-06  
   -0.49000     1.909e-05    4.702e-06  
   -0.50000     1.913e-05    4.612e-06  
   -0.51000     1.918e-05    4.529e-06  
   -0.52000     1.922e-05    4.451e-06  
   -0.53000     1.926e-05    4.377e-06  
   -0.54000     1.930e-05    4.308e-06  
   -0.55000     1.935e-05    4.243e-06  
   -0.56000     1.939e-05    4.182e-06  
   -0.57000     1.943e-05    4.124e-06  
   -0.58000     1.947e-05    4.070e-06  
   -0.59000     1.951e-05    4.018e-06  
   -0.60000     1.955e-05    3.969e-06  
   -0.61000     1.959e-05    3.923e-06  
   -0.62000     1.962e-05    3.879e-06  
   -0.63000     1.966e-05    3.837e-06  
   -0.64000     1.970e-05    3.797e-06  
   -0.65000     1.974e-05    3.759e-06  
   -0.66000     1.977e-05    3.723e-06  
   -0.67000     1.981e-05    3.688e-06  
   -0.68000     1.985e-05    3.655e-06  
   -0.69000     1.988e-05    3.624e-06  
   -0.70000     1.992e-05    3.594e-06  
   -0.71000     1.995e-05    3.565e-06  
   -0.72000     1.999e-05    3.537e-06  
   -0.73000     2.002e-05    3.511e-06  
   -0.74000     2.006e-05    3.485e-06  
   -0.75000     2.009e-05    3.461e-06  
   -0.76000     2.013e-05    3.438e-06  
   -0.77000     2.016e-05    3.415e-06  
   -0.78000     2.019e-05    3.393e-06  
   -0.79000     2.023e-05    3.373e-06  
   -0.80000     2.026e-05    3.352e-06  
   -0.81000     2.029e-05    3.333e-06  
   -0.82000     2.033e-05    3.314e-06  
   -0.83000     2.036e-05    3.296e-06  
   -0.84000     2.039e-05    3.279e-06  
   -0.85000     2.043e-05    3.262e-06  
   -0.86000     2.046e-05    3.246e-06  
   -0.87000     2.049e-05    3.231e-06  
   -0.88000     2.052e-05    3.215e-06  
   -0.89000     2.055e-05    3.201e-06  
   -0.90000     2.059e-05    3.187e-06  
   -0.91000     2.062e-05    3.173e-06  
   -0.92000     2.065e-05    3.160e-06  
   -0.93000     2.068e-05    3.147e-06  
   -0.94000     2.071e-05    3.134e-06  
   -0.95000     2.074e-05    3.122e-06  
   -0.96000     2.077e-05    3.111e-06  
   -0.97000     2.080e-05    3.099e-06  
   -0.98000     2.083e-05    3.088e-06  
   -0.99000     2.087e-05    3.078e-06  
   -1.00000     2.090e-05    3.067e-06  
y
-----------------------------------------------
 ******  
 *sample netlist for bsim-mg

  ******  dc transfer curves tnom=  25.000 temp=  27.000 *****

   *** source        0:vgs =   -0.6000        ***

x

        volt    param        param      
                    ids         -gds    
    0.         -3.058e-13      0.       
 -1.0000e-02    3.707e-06   -2.090e-03  
 -2.0000e-02    7.243e-06    3.707e-04  
 -3.0000e-02    1.060e-05    3.536e-04  
 -4.0000e-02    1.377e-05    3.356e-04  
 -5.0000e-02    1.674e-05    3.167e-04  
 -6.0000e-02    1.951e-05    2.972e-04  
 -7.0000e-02    2.208e-05    2.772e-04  
 -8.0000e-02    2.446e-05    2.573e-04  
 -9.0000e-02    2.665e-05    2.377e-04  
   -0.10000     2.866e-05    2.188e-04  
   -0.11000     3.049e-05    2.007e-04  
   -0.12000     3.217e-05    1.838e-04  
   -0.13000     3.371e-05    1.680e-04  
   -0.14000     3.511e-05    1.536e-04  
   -0.15000     3.639e-05    1.403e-04  
   -0.16000     3.757e-05    1.283e-04  
   -0.17000     3.864e-05    1.174e-04  
   -0.18000     3.963e-05    1.075e-04  
   -0.19000     4.054e-05    9.860e-05  
   -0.20000     4.137e-05    9.056e-05  
   -0.21000     4.214e-05    8.332e-05  
   -0.22000     4.285e-05    7.680e-05  
   -0.23000     4.350e-05    7.092e-05  
   -0.24000     4.411e-05    6.563e-05  
   -0.25000     4.468e-05    6.086e-05  
   -0.26000     4.520e-05    5.656e-05  
   -0.27000     4.569e-05    5.268e-05  
   -0.28000     4.615e-05    4.918e-05  
   -0.29000     4.659e-05    4.602e-05  
   -0.30000     4.699e-05    4.316e-05  
   -0.31000     4.737e-05    4.057e-05  
   -0.32000     4.774e-05    3.823e-05  
   -0.33000     4.808e-05    3.609e-05  
   -0.34000     4.840e-05    3.415e-05  
   -0.35000     4.871e-05    3.239e-05  
   -0.36000     4.900e-05    3.077e-05  
   -0.37000     4.928e-05    2.930e-05  
   -0.38000     4.955e-05    2.794e-05  
   -0.39000     4.980e-05    2.670e-05  
   -0.40000     5.005e-05    2.556e-05  
   -0.41000     5.028e-05    2.451e-05  
   -0.42000     5.051e-05    2.354e-05  
   -0.43000     5.073e-05    2.264e-05  
   -0.44000     5.094e-05    2.181e-05  
   -0.45000     5.114e-05    2.104e-05  
   -0.46000     5.134e-05    2.032e-05  
   -0.47000     5.153e-05    1.966e-05  
   -0.48000     5.171e-05    1.904e-05  
   -0.49000     5.189e-05    1.846e-05  
   -0.50000     5.207e-05    1.791e-05  
   -0.51000     5.224e-05    1.740e-05  
   -0.52000     5.240e-05    1.693e-05  
   -0.53000     5.256e-05    1.648e-05  
   -0.54000     5.272e-05    1.606e-05  
   -0.55000     5.287e-05    1.566e-05  
   -0.56000     5.302e-05    1.529e-05  
   -0.57000     5.317e-05    1.494e-05  
   -0.58000     5.331e-05    1.460e-05  
   -0.59000     5.345e-05    1.429e-05  
   -0.60000     5.359e-05    1.399e-05  
   -0.61000     5.372e-05    1.371e-05  
   -0.62000     5.385e-05    1.344e-05  
   -0.63000     5.398e-05    1.318e-05  
   -0.64000     5.411e-05    1.294e-05  
   -0.65000     5.423e-05    1.271e-05  
   -0.66000     5.436e-05    1.249e-05  
   -0.67000     5.448e-05    1.227e-05  
   -0.68000     5.460e-05    1.207e-05  
   -0.69000     5.471e-05    1.188e-05  
   -0.70000     5.483e-05    1.170e-05  
   -0.71000     5.494e-05    1.152e-05  
   -0.72000     5.505e-05    1.135e-05  
   -0.73000     5.516e-05    1.119e-05  
   -0.74000     5.527e-05    1.104e-05  
   -0.75000     5.538e-05    1.089e-05  
   -0.76000     5.549e-05    1.075e-05  
   -0.77000     5.559e-05    1.061e-05  
   -0.78000     5.569e-05    1.048e-05  
   -0.79000     5.580e-05    1.035e-05  
   -0.80000     5.590e-05    1.023e-05  
   -0.81000     5.600e-05    1.011e-05  
   -0.82000     5.610e-05    9.994e-06  
   -0.83000     5.619e-05    9.885e-06  
   -0.84000     5.629e-05    9.779e-06  
   -0.85000     5.639e-05    9.676e-06  
   -0.86000     5.648e-05    9.577e-06  
   -0.87000     5.658e-05    9.482e-06  
   -0.88000     5.667e-05    9.389e-06  
   -0.89000     5.676e-05    9.299e-06  
   -0.90000     5.685e-05    9.213e-06  
   -0.91000     5.694e-05    9.129e-06  
   -0.92000     5.703e-05    9.047e-06  
   -0.93000     5.712e-05    8.968e-06  
   -0.94000     5.721e-05    8.892e-06  
   -0.95000     5.730e-05    8.818e-06  
   -0.96000     5.738e-05    8.746e-06  
   -0.97000     5.747e-05    8.676e-06  
   -0.98000     5.756e-05    8.608e-06  
   -0.99000     5.764e-05    8.542e-06  
   -1.00000     5.772e-05    8.477e-06  
y
-----------------------------------------------
 ******  
 *sample netlist for bsim-mg

  ******  dc transfer curves tnom=  25.000 temp=  27.000 *****

   *** source        0:vgs =   -0.7000        ***

x

        volt    param        param      
                    ids         -gds    
    0.         -2.162e-13      0.       
 -1.0000e-02    5.314e-06   -5.772e-03  
 -2.0000e-02    1.047e-05    5.314e-04  
 -3.0000e-02    1.545e-05    5.152e-04  
 -4.0000e-02    2.025e-05    4.981e-04  
 -5.0000e-02    2.486e-05    4.800e-04  
 -6.0000e-02    2.927e-05    4.610e-04  
 -7.0000e-02    3.348e-05    4.412e-04  
 -8.0000e-02    3.748e-05    4.209e-04  
 -9.0000e-02    4.127e-05    4.002e-04  
   -0.10000     4.486e-05    3.794e-04  
   -0.11000     4.825e-05    3.588e-04  
   -0.12000     5.144e-05    3.386e-04  
   -0.13000     5.444e-05    3.189e-04  
   -0.14000     5.726e-05    3.000e-04  
   -0.15000     5.990e-05    2.820e-04  
   -0.16000     6.239e-05    2.649e-04  
   -0.17000     6.473e-05    2.488e-04  
   -0.18000     6.693e-05    2.337e-04  
   -0.19000     6.899e-05    2.196e-04  
   -0.20000     7.093e-05    2.065e-04  
   -0.21000     7.276e-05    1.943e-04  
   -0.22000     7.449e-05    1.829e-04  
   -0.23000     7.611e-05    1.724e-04  
   -0.24000     7.765e-05    1.626e-04  
   -0.25000     7.910e-05    1.535e-04  
   -0.26000     8.047e-05    1.451e-04  
   -0.27000     8.177e-05    1.372e-04  
   -0.28000     8.300e-05    1.299e-04  
   -0.29000     8.417e-05    1.231e-04  
   -0.30000     8.528e-05    1.168e-04  
   -0.31000     8.633e-05    1.109e-04  
   -0.32000     8.733e-05    1.054e-04  
   -0.33000     8.829e-05    1.003e-04  
   -0.34000     8.920e-05    9.553e-05  
   -0.35000     9.007e-05    9.109e-05  
   -0.36000     9.090e-05    8.696e-05  
   -0.37000     9.169e-05    8.310e-05  
   -0.38000     9.246e-05    7.949e-05  
   -0.39000     9.319e-05    7.613e-05  
   -0.40000     9.389e-05    7.298e-05  
   -0.41000     9.456e-05    7.004e-05  
   -0.42000     9.521e-05    6.728e-05  
   -0.43000     9.583e-05    6.471e-05  
   -0.44000     9.643e-05    6.229e-05  
   -0.45000     9.701e-05    6.002e-05  
   -0.46000     9.757e-05    5.790e-05  
   -0.47000     9.811e-05    5.590e-05  
   -0.48000     9.863e-05    5.402e-05  
   -0.49000     9.914e-05    5.225e-05  
   -0.50000     9.963e-05    5.058e-05  
   -0.51000     1.001e-04    4.901e-05  
   -0.52000     1.006e-04    4.753e-05  
   -0.53000     1.010e-04    4.613e-05  
   -0.54000     1.014e-04    4.481e-05  
   -0.55000     1.019e-04    4.355e-05  
   -0.56000     1.023e-04    4.237e-05  
   -0.57000     1.027e-04    4.125e-05  
   -0.58000     1.031e-04    4.018e-05  
   -0.59000     1.035e-04    3.917e-05  
   -0.60000     1.038e-04    3.821e-05  
   -0.61000     1.042e-04    3.729e-05  
   -0.62000     1.046e-04    3.642e-05  
   -0.63000     1.049e-04    3.559e-05  
   -0.64000     1.052e-04    3.480e-05  
   -0.65000     1.056e-04    3.405e-05  
   -0.66000     1.059e-04    3.333e-05  
   -0.67000     1.062e-04    3.264e-05  
   -0.68000     1.065e-04    3.199e-05  
   -0.69000     1.068e-04    3.136e-05  
   -0.70000     1.071e-04    3.076e-05  
   -0.71000     1.074e-04    3.018e-05  
   -0.72000     1.077e-04    2.963e-05  
   -0.73000     1.080e-04    2.910e-05  
   -0.74000     1.083e-04    2.859e-05  
   -0.75000     1.086e-04    2.810e-05  
   -0.76000     1.088e-04    2.763e-05  
   -0.77000     1.091e-04    2.717e-05  
   -0.78000     1.094e-04    2.674e-05  
   -0.79000     1.096e-04    2.632e-05  
   -0.80000     1.099e-04    2.592e-05  
   -0.81000     1.101e-04    2.553e-05  
   -0.82000     1.104e-04    2.515e-05  
   -0.83000     1.106e-04    2.479e-05  
   -0.84000     1.109e-04    2.444e-05  
   -0.85000     1.111e-04    2.410e-05  
   -0.86000     1.113e-04    2.378e-05  
   -0.87000     1.116e-04    2.346e-05  
   -0.88000     1.118e-04    2.316e-05  
   -0.89000     1.120e-04    2.286e-05  
   -0.90000     1.123e-04    2.257e-05  
   -0.91000     1.125e-04    2.230e-05  
   -0.92000     1.127e-04    2.203e-05  
   -0.93000     1.129e-04    2.177e-05  
   -0.94000     1.131e-04    2.152e-05  
   -0.95000     1.133e-04    2.127e-05  
   -0.96000     1.135e-04    2.103e-05  
   -0.97000     1.137e-04    2.080e-05  
   -0.98000     1.139e-04    2.058e-05  
   -0.99000     1.142e-04    2.036e-05  
   -1.00000     1.143e-04    2.015e-05  
y
-----------------------------------------------
 ******  
 *sample netlist for bsim-mg

  ******  dc transfer curves tnom=  25.000 temp=  27.000 *****

   *** source        0:vgs =   -0.8000        ***

x

        volt    param        param      
                    ids         -gds    
    0.         -1.335e-13      0.       
 -1.0000e-02    6.798e-06   -1.143e-02  
 -2.0000e-02    1.345e-05    6.798e-04  
 -3.0000e-02    1.994e-05    6.650e-04  
 -4.0000e-02    2.627e-05    6.493e-04  
 -5.0000e-02    3.242e-05    6.326e-04  
 -6.0000e-02    3.838e-05    6.149e-04  
 -7.0000e-02    4.415e-05    5.963e-04  
 -8.0000e-02    4.972e-05    5.769e-04  
 -9.0000e-02    5.508e-05    5.569e-04  
   -0.10000     6.024e-05    5.364e-04  
   -0.11000     6.518e-05    5.155e-04  
   -0.12000     6.992e-05    4.946e-04  
   -0.13000     7.445e-05    4.738e-04  
   -0.14000     7.878e-05    4.532e-04  
   -0.15000     8.292e-05    4.330e-04  
   -0.16000     8.686e-05    4.133e-04  
   -0.17000     9.062e-05    3.943e-04  
   -0.18000     9.420e-05    3.760e-04  
   -0.19000     9.762e-05    3.585e-04  
   -0.20000     1.009e-04    3.418e-04  
   -0.21000     1.040e-04    3.260e-04  
   -0.22000     1.070e-04    3.110e-04  
   -0.23000     1.098e-04    2.968e-04  
   -0.24000     1.125e-04    2.835e-04  
   -0.25000     1.151e-04    2.709e-04  
   -0.26000     1.176e-04    2.590e-04  
   -0.27000     1.199e-04    2.478e-04  
   -0.28000     1.222e-04    2.373e-04  
   -0.29000     1.244e-04    2.273e-04  
   -0.30000     1.265e-04    2.180e-04  
   -0.31000     1.285e-04    2.091e-04  
   -0.32000     1.304e-04    2.007e-04  
   -0.33000     1.323e-04    1.928e-04  
   -0.34000     1.341e-04    1.853e-04  
   -0.35000     1.358e-04    1.782e-04  
   -0.36000     1.374e-04    1.715e-04  
   -0.37000     1.390e-04    1.651e-04  
   -0.38000     1.406e-04    1.591e-04  
   -0.39000     1.420e-04    1.534e-04  
   -0.40000     1.435e-04    1.480e-04  
   -0.41000     1.448e-04    1.428e-04  
   -0.42000     1.462e-04    1.379e-04  
   -0.43000     1.475e-04    1.333e-04  
   -0.44000     1.487e-04    1.288e-04  
   -0.45000     1.499e-04    1.246e-04  
   -0.46000     1.511e-04    1.207e-04  
   -0.47000     1.522e-04    1.169e-04  
   -0.48000     1.533e-04    1.132e-04  
   -0.49000     1.544e-04    1.098e-04  
   -0.50000     1.554e-04    1.065e-04  
   -0.51000     1.564e-04    1.034e-04  
   -0.52000     1.574e-04    1.005e-04  
   -0.53000     1.583e-04    9.764e-05  
   -0.54000     1.593e-04    9.495e-05  
   -0.55000     1.602e-04    9.238e-05  
   -0.56000     1.610e-04    8.993e-05  
   -0.57000     1.619e-04    8.759e-05  
   -0.58000     1.627e-04    8.535e-05  
   -0.59000     1.635e-04    8.322e-05  
   -0.60000     1.643e-04    8.118e-05  
   -0.61000     1.651e-04    7.922e-05  
   -0.62000     1.659e-04    7.736e-05  
   -0.63000     1.666e-04    7.557e-05  
   -0.64000     1.673e-04    7.386e-05  
   -0.65000     1.680e-04    7.221e-05  
   -0.66000     1.687e-04    7.064e-05  
   -0.67000     1.694e-04    6.913e-05  
   -0.68000     1.701e-04    6.768e-05  
   -0.69000     1.707e-04    6.629e-05  
   -0.70000     1.713e-04    6.496e-05  
   -0.71000     1.720e-04    6.367e-05  
   -0.72000     1.726e-04    6.244e-05  
   -0.73000     1.732e-04    6.125e-05  
   -0.74000     1.738e-04    6.011e-05  
   -0.75000     1.744e-04    5.901e-05  
   -0.76000     1.749e-04    5.795e-05  
   -0.77000     1.755e-04    5.692e-05  
   -0.78000     1.760e-04    5.594e-05  
   -0.79000     1.766e-04    5.499e-05  
   -0.80000     1.771e-04    5.407e-05  
   -0.81000     1.776e-04    5.318e-05  
   -0.82000     1.781e-04    5.233e-05  
   -0.83000     1.786e-04    5.150e-05  
   -0.84000     1.791e-04    5.070e-05  
   -0.85000     1.796e-04    4.992e-05  
   -0.86000     1.801e-04    4.918e-05  
   -0.87000     1.806e-04    4.845e-05  
   -0.88000     1.811e-04    4.775e-05  
   -0.89000     1.815e-04    4.707e-05  
   -0.90000     1.820e-04    4.641e-05  
   -0.91000     1.824e-04    4.577e-05  
   -0.92000     1.829e-04    4.515e-05  
   -0.93000     1.833e-04    4.455e-05  
   -0.94000     1.838e-04    4.397e-05  
   -0.95000     1.842e-04    4.340e-05  
   -0.96000     1.846e-04    4.285e-05  
   -0.97000     1.850e-04    4.231e-05  
   -0.98000     1.854e-04    4.179e-05  
   -0.99000     1.859e-04    4.129e-05  
   -1.00000     1.863e-04    4.080e-05  
y
-----------------------------------------------
 ******  
 *sample netlist for bsim-mg

  ******  dc transfer curves tnom=  25.000 temp=  27.000 *****

   *** source        0:vgs =   -0.9000        ***

x

        volt    param        param      
                    ids         -gds    
    0.         -7.914e-14      0.       
 -1.0000e-02    8.137e-06   -1.863e-02  
 -2.0000e-02    1.614e-05    8.137e-04  
 -3.0000e-02    2.400e-05    8.004e-04  
 -4.0000e-02    3.171e-05    7.861e-04  
 -5.0000e-02    3.925e-05    7.708e-04  
 -6.0000e-02    4.663e-05    7.545e-04  
 -7.0000e-02    5.382e-05    7.372e-04  
 -8.0000e-02    6.082e-05    7.190e-04  
 -9.0000e-02    6.762e-05    7.001e-04  
   -0.10000     7.422e-05    6.804e-04  
   -0.11000     8.062e-05    6.602e-04  
   -0.12000     8.681e-05    6.397e-04  
   -0.13000     9.279e-05    6.188e-04  
   -0.14000     9.856e-05    5.979e-04  
   -0.15000     1.041e-04    5.770e-04  
   -0.16000     1.095e-04    5.564e-04  
   -0.17000     1.146e-04    5.360e-04  
   -0.18000     1.196e-04    5.160e-04  
   -0.19000     1.244e-04    4.966e-04  
   -0.20000     1.290e-04    4.777e-04  
   -0.21000     1.334e-04    4.595e-04  
   -0.22000     1.377e-04    4.420e-04  
   -0.23000     1.417e-04    4.253e-04  
   -0.24000     1.457e-04    4.092e-04  
   -0.25000     1.495e-04    3.940e-04  
   -0.26000     1.531e-04    3.794e-04  
   -0.27000     1.567e-04    3.656e-04  
   -0.28000     1.601e-04    3.524e-04  
   -0.29000     1.633e-04    3.400e-04  
   -0.30000     1.665e-04    3.281e-04  
   -0.31000     1.696e-04    3.169e-04  
   -0.32000     1.725e-04    3.062e-04  
   -0.33000     1.754e-04    2.960e-04  
   -0.34000     1.782e-04    2.864e-04  
   -0.35000     1.809e-04    2.772e-04  
   -0.36000     1.835e-04    2.684e-04  
   -0.37000     1.860e-04    2.601e-04  
   -0.38000     1.884e-04    2.521e-04  
   -0.39000     1.908e-04    2.445e-04  
   -0.40000     1.931e-04    2.373e-04  
   -0.41000     1.953e-04    2.303e-04  
   -0.42000     1.975e-04    2.236e-04  
   -0.43000     1.996e-04    2.173e-04  
   -0.44000     2.017e-04    2.111e-04  
   -0.45000     2.037e-04    2.053e-04  
   -0.46000     2.056e-04    1.997e-04  
   -0.47000     2.075e-04    1.943e-04  
   -0.48000     2.093e-04    1.891e-04  
   -0.49000     2.111e-04    1.841e-04  
   -0.50000     2.129e-04    1.793e-04  
   -0.51000     2.146e-04    1.747e-04  
   -0.52000     2.162e-04    1.703e-04  
   -0.53000     2.179e-04    1.661e-04  
   -0.54000     2.194e-04    1.620e-04  
   -0.55000     2.210e-04    1.580e-04  
   -0.56000     2.225e-04    1.543e-04  
   -0.57000     2.240e-04    1.506e-04  
   -0.58000     2.254e-04    1.471e-04  
   -0.59000     2.268e-04    1.438e-04  
   -0.60000     2.282e-04    1.405e-04  
   -0.61000     2.295e-04    1.374e-04  
   -0.62000     2.308e-04    1.344e-04  
   -0.63000     2.321e-04    1.315e-04  
   -0.64000     2.334e-04    1.287e-04  
   -0.65000     2.346e-04    1.260e-04  
   -0.66000     2.358e-04    1.234e-04  
   -0.67000     2.370e-04    1.209e-04  
   -0.68000     2.382e-04    1.185e-04  
   -0.69000     2.393e-04    1.162e-04  
   -0.70000     2.404e-04    1.139e-04  
   -0.71000     2.415e-04    1.117e-04  
   -0.72000     2.426e-04    1.096e-04  
   -0.73000     2.437e-04    1.076e-04  
   -0.74000     2.447e-04    1.057e-04  
   -0.75000     2.457e-04    1.038e-04  
   -0.76000     2.467e-04    1.019e-04  
   -0.77000     2.477e-04    1.002e-04  
   -0.78000     2.487e-04    9.844e-05  
   -0.79000     2.496e-04    9.678e-05  
   -0.80000     2.506e-04    9.517e-05  
   -0.81000     2.515e-04    9.362e-05  
   -0.82000     2.524e-04    9.211e-05  
   -0.83000     2.533e-04    9.065e-05  
   -0.84000     2.542e-04    8.923e-05  
   -0.85000     2.550e-04    8.785e-05  
   -0.86000     2.559e-04    8.652e-05  
   -0.87000     2.567e-04    8.523e-05  
   -0.88000     2.575e-04    8.397e-05  
   -0.89000     2.584e-04    8.275e-05  
   -0.90000     2.592e-04    8.157e-05  
   -0.91000     2.600e-04    8.042e-05  
   -0.92000     2.607e-04    7.930e-05  
   -0.93000     2.615e-04    7.822e-05  
   -0.94000     2.623e-04    7.716e-05  
   -0.95000     2.630e-04    7.614e-05  
   -0.96000     2.638e-04    7.514e-05  
   -0.97000     2.645e-04    7.417e-05  
   -0.98000     2.652e-04    7.322e-05  
   -0.99000     2.659e-04    7.230e-05  
   -1.00000     2.666e-04    7.140e-05  
y
-----------------------------------------------
 ******  
 *sample netlist for bsim-mg

  ******  dc transfer curves tnom=  25.000 temp=  27.000 *****

   *** source        0:vgs =   -1.0000        ***

x

        volt    param        param      
                    ids         -gds    
    0.         -4.851e-14      0.       
 -1.0000e-02    9.336e-06   -2.666e-02  
 -2.0000e-02    1.855e-05    9.336e-04  
 -3.0000e-02    2.764e-05    9.215e-04  
 -4.0000e-02    3.658e-05    9.085e-04  
 -5.0000e-02    4.537e-05    8.944e-04  
 -6.0000e-02    5.400e-05    8.793e-04  
 -7.0000e-02    6.247e-05    8.632e-04  
 -8.0000e-02    7.075e-05    8.462e-04  
 -9.0000e-02    7.885e-05    8.283e-04  
   -0.10000     8.675e-05    8.096e-04  
   -0.11000     9.445e-05    7.901e-04  
   -0.12000     1.019e-04    7.702e-04  
   -0.13000     1.092e-04    7.497e-04  
   -0.14000     1.163e-04    7.290e-04  
   -0.15000     1.232e-04    7.080e-04  
   -0.16000     1.298e-04    6.870e-04  
   -0.17000     1.363e-04    6.661e-04  
   -0.18000     1.425e-04    6.453e-04  
   -0.19000     1.486e-04    6.247e-04  
   -0.20000     1.544e-04    6.046e-04  
   -0.21000     1.601e-04    5.849e-04  
   -0.22000     1.656e-04    5.657e-04  
   -0.23000     1.709e-04    5.470e-04  
   -0.24000     1.760e-04    5.290e-04  
   -0.25000     1.809e-04    5.117e-04  
   -0.26000     1.857e-04    4.950e-04  
   -0.27000     1.904e-04    4.790e-04  
   -0.28000     1.948e-04    4.637e-04  
   -0.29000     1.992e-04    4.490e-04  
   -0.30000     2.034e-04    4.351e-04  
   -0.31000     2.075e-04    4.218e-04  
   -0.32000     2.115e-04    4.091e-04  
   -0.33000     2.153e-04    3.970e-04  
   -0.34000     2.191e-04    3.855e-04  
   -0.35000     2.227e-04    3.745e-04  
   -0.36000     2.263e-04    3.640e-04  
   -0.37000     2.297e-04    3.541e-04  
   -0.38000     2.331e-04    3.445e-04  
   -0.39000     2.363e-04    3.354e-04  
   -0.40000     2.395e-04    3.267e-04  
   -0.41000     2.426e-04    3.184e-04  
   -0.42000     2.456e-04    3.104e-04  
   -0.43000     2.486e-04    3.027e-04  
   -0.44000     2.515e-04    2.954e-04  
   -0.45000     2.543e-04    2.883e-04  
   -0.46000     2.570e-04    2.815e-04  
   -0.47000     2.597e-04    2.750e-04  
   -0.48000     2.623e-04    2.687e-04  
   -0.49000     2.649e-04    2.626e-04  
   -0.50000     2.674e-04    2.567e-04  
   -0.51000     2.699e-04    2.510e-04  
   -0.52000     2.723e-04    2.456e-04  
   -0.53000     2.746e-04    2.403e-04  
   -0.54000     2.769e-04    2.352e-04  
   -0.55000     2.792e-04    2.302e-04  
   -0.56000     2.814e-04    2.254e-04  
   -0.57000     2.836e-04    2.208e-04  
   -0.58000     2.857e-04    2.163e-04  
   -0.59000     2.878e-04    2.120e-04  
   -0.60000     2.898e-04    2.078e-04  
   -0.61000     2.918e-04    2.037e-04  
   -0.62000     2.938e-04    1.997e-04  
   -0.63000     2.957e-04    1.959e-04  
   -0.64000     2.976e-04    1.922e-04  
   -0.65000     2.994e-04    1.886e-04  
   -0.66000     3.012e-04    1.851e-04  
   -0.67000     3.030e-04    1.817e-04  
   -0.68000     3.048e-04    1.784e-04  
   -0.69000     3.065e-04    1.752e-04  
   -0.70000     3.082e-04    1.721e-04  
   -0.71000     3.098e-04    1.691e-04  
   -0.72000     3.115e-04    1.662e-04  
   -0.73000     3.131e-04    1.634e-04  
   -0.74000     3.147e-04    1.606e-04  
   -0.75000     3.162e-04    1.580e-04  
   -0.76000     3.177e-04    1.554e-04  
   -0.77000     3.192e-04    1.529e-04  
   -0.78000     3.207e-04    1.504e-04  
   -0.79000     3.222e-04    1.480e-04  
   -0.80000     3.236e-04    1.457e-04  
   -0.81000     3.250e-04    1.435e-04  
   -0.82000     3.264e-04    1.413e-04  
   -0.83000     3.278e-04    1.392e-04  
   -0.84000     3.291e-04    1.371e-04  
   -0.85000     3.305e-04    1.351e-04  
   -0.86000     3.318e-04    1.331e-04  
   -0.87000     3.331e-04    1.312e-04  
   -0.88000     3.344e-04    1.294e-04  
   -0.89000     3.356e-04    1.276e-04  
   -0.90000     3.369e-04    1.258e-04  
   -0.91000     3.381e-04    1.241e-04  
   -0.92000     3.393e-04    1.224e-04  
   -0.93000     3.405e-04    1.208e-04  
   -0.94000     3.417e-04    1.192e-04  
   -0.95000     3.428e-04    1.176e-04  
   -0.96000     3.440e-04    1.161e-04  
   -0.97000     3.451e-04    1.147e-04  
   -0.98000     3.462e-04    1.132e-04  
   -0.99000     3.473e-04    1.118e-04  
   -1.00000     3.484e-04    1.105e-04  
y
-----------------------------------------------

          ***** job concluded
1****** HSPICE -- G-2012.06 32-BIT (May 27 2012) RHEL32 ******                  
 ******  
 *sample netlist for bsim-mg

  ******  job statistics summary tnom=  25.000 temp=  27.000 *****
  
  
 ******  Machine Information  ******
 CPU:
 model name	: Intel(R) Xeon(R) CPU           X7350  @ 2.93GHz
 cpu MHz	: 2925.869
  
 OS:
 Linux version 2.6.18-348.4.1.el5 (mockbuild@x86-007.build.bos.redhat.com) (gcc version 4.1.2 20080704 (Red Hat 4.1.2-54)) #1 SMP Fri Mar 22 05:41:51 EDT 2013


  ******  HSPICE Threads Information  ******

  Command Line Threads Count :     1
  Available CPU Count        :     8
  Actual Threads Count       :     1


  ******  Circuit Statistics  ******
  # nodes       =       6 # elements   =       4
  # resistors   =       0 # capacitors =       0 # inductors   =       0
  # mutual_inds =       0 # vccs       =       0 # vcvs        =       0
  # cccs        =       0 # ccvs       =       0 # volt_srcs   =       3
  # curr_srcs   =       0 # diodes     =       0 # bjts        =       0
  # jfets       =       0 # mosfets    =       0 # U elements  =       0
  # T elements  =       0 # W elements =       0 # B elements  =       0
  # S elements  =       0 # P elements =       0 # va device   =       1
  # vector_srcs =       0 # N elements =       0


  ******  Runtime Statistics (seconds)  ******

  analysis           time    # points   tot. iter  conv.iter
  op point           0.00           1           0
  dc sweep           0.14        1111        2233
  readin             3.45
  errchk             0.05
  setup              0.00
  output             0.00


           peak memory used        117.16 megabytes
           total cpu time            3.65 seconds
           total elapsed time       14.15 seconds
           job started at     15:14:05 07/12/2013
           job ended   at     15:14:19 07/12/2013


 Loading pVA library idvdpmos.pvadir/pvaRTL_linux.so...
1****** HSPICE -- G-2012.06 32-BIT (May 27 2012) RHEL32 ******                  
 ******  
 *sample netlist for bsim-mg

  ******  circuit name directory
 circuit number to circuit name directory
   number circuitname                     definition         multiplier
        0 main circuit
        1 x1.                             bsimcmg(va)        1.00 
 **info** *pvaI* Creating Verilog-A module 'bsimcmg' for X1

  
      
 *****************************************************************
 ******  option summary
 ******
 runlvl  = 3         bypass  = 2         
  Opening plot unit= 15
 file=idvdpmos.pa1                                                             

 ******  
 *sample netlist for bsim-mg

  ******  dc transfer curves tnom=  25.000 temp= -55.000 *****

   *** source        0:vgs =    0.            ***

x

        volt    param        param      
                    ids         -gds    
    0.            0.           0.       
 -1.0000e-02    2.274e-15      0.       
 -2.0000e-02    2.274e-15    2.274e-13  
 -3.0000e-02    6.963e-15      0.       
 -4.0000e-02    4.547e-15    4.690e-13  
 -5.0000e-02    5.684e-15   -2.416e-13  
 -6.0000e-02    6.821e-15    1.137e-13  
 -7.0000e-02    7.958e-15    1.137e-13  
 -8.0000e-02      0.         1.137e-13  
 -9.0000e-02      0.        -7.958e-13  
   -0.10000       0.           0.       
   -0.11000       0.           0.       
   -0.12000       0.           0.       
   -0.13000       0.           0.       
   -0.14000       0.           0.       
   -0.15000       0.           0.       
   -0.16000       0.           0.       
   -0.17000       0.           0.       
   -0.18000       0.           0.       
   -0.19000       0.           0.       
   -0.20000       0.           0.       
   -0.21000       0.           0.       
   -0.22000       0.           0.       
   -0.23000       0.           0.       
   -0.24000       0.           0.       
   -0.25000       0.           0.       
   -0.26000       0.           0.       
   -0.27000       0.           0.       
   -0.28000       0.           0.       
   -0.29000       0.           0.       
   -0.30000       0.           0.       
   -0.31000       0.           0.       
   -0.32000       0.           0.       
   -0.33000       0.           0.       
   -0.34000       0.           0.       
   -0.35000       0.           0.       
   -0.36000       0.           0.       
   -0.37000       0.           0.       
   -0.38000       0.           0.       
   -0.39000       0.           0.       
   -0.40000       0.           0.       
   -0.41000       0.           0.       
   -0.42000       0.           0.       
   -0.43000       0.           0.       
   -0.44000       0.           0.       
   -0.45000       0.           0.       
   -0.46000       0.           0.       
   -0.47000       0.           0.       
   -0.48000       0.           0.       
   -0.49000       0.           0.       
   -0.50000       0.           0.       
   -0.51000       0.           0.       
   -0.52000       0.           0.       
   -0.53000       0.           0.       
   -0.54000       0.           0.       
   -0.55000       0.           0.       
   -0.56000       0.           0.       
   -0.57000       0.           0.       
   -0.58000       0.           0.       
   -0.59000       0.           0.       
   -0.60000       0.           0.       
   -0.61000       0.           0.       
   -0.62000       0.           0.       
   -0.63000       0.           0.       
   -0.64000       0.           0.       
   -0.65000       0.           0.       
   -0.66000       0.           0.       
   -0.67000       0.           0.       
   -0.68000       0.           0.       
   -0.69000       0.           0.       
   -0.70000       0.           0.       
   -0.71000       0.           0.       
   -0.72000       0.           0.       
   -0.73000       0.           0.       
   -0.74000       0.           0.       
   -0.75000       0.           0.       
   -0.76000       0.           0.       
   -0.77000       0.           0.       
   -0.78000       0.           0.       
   -0.79000       0.           0.       
   -0.80000       0.           0.       
   -0.81000    -2.160e-14      0.       
   -0.82000    -2.046e-14   -2.160e-12  
   -0.83000     7.503e-14    1.137e-13  
   -0.84000     5.912e-14    9.550e-12  
   -0.85000     4.547e-14   -1.592e-12  
   -0.86000     3.411e-14   -1.364e-12  
   -0.87000     1.239e-13   -1.137e-12  
   -0.88000     1.046e-13    8.981e-12  
   -0.89000     8.981e-14   -1.933e-12  
   -0.90000     6.821e-14   -1.478e-12  
   -0.91000     1.671e-13   -2.160e-12  
   -0.92000     4.547e-14    9.891e-12  
   -0.93000     1.501e-13   -1.216e-11  
   -0.94000     2.569e-13    1.046e-11  
   -0.95000     1.535e-13    1.069e-11  
   -0.96000     2.774e-13   -1.035e-11  
   -0.97000     1.910e-13    1.239e-11  
   -0.98000     3.388e-13   -8.640e-12  
   -0.99000     3.899e-13    1.478e-11  
   -1.00000     4.547e-13    5.116e-12  
y
-----------------------------------------------
 ******  
 *sample netlist for bsim-mg

  ******  dc transfer curves tnom=  25.000 temp= -55.000 *****

   *** source        0:vgs =   -0.1000        ***

x

        volt    param        param      
                    ids         -gds    
    0.         -4.351e-15      0.       
 -1.0000e-02    1.052e-14   -4.591e-11  
 -2.0000e-02    1.997e-14    1.487e-12  
 -3.0000e-02    2.593e-14    9.450e-13  
 -4.0000e-02    2.464e-14    5.960e-13  
 -5.0000e-02    3.558e-14   -1.287e-13  
 -6.0000e-02    2.993e-14    1.094e-12  
 -7.0000e-02    2.872e-14   -5.649e-13  
 -8.0000e-02    3.414e-14   -1.218e-13  
 -9.0000e-02    3.951e-14    5.424e-13  
   -0.10000     4.428e-14    5.371e-13  
   -0.11000     4.676e-14    4.766e-13  
   -0.12000     4.882e-14    2.482e-13  
   -0.13000     5.126e-14    2.062e-13  
   -0.14000     5.406e-14    2.440e-13  
   -0.15000     2.874e-14    2.805e-13  
   -0.16000     3.206e-14   -2.532e-12  
   -0.17000     3.556e-14    3.323e-13  
   -0.18000     3.918e-14    3.494e-13  
   -0.19000     4.289e-14    3.621e-13  
   -0.20000     4.667e-14    3.713e-13  
   -0.21000     5.049e-14    3.779e-13  
   -0.22000     5.434e-14    3.823e-13  
   -0.23000     5.821e-14    3.852e-13  
   -0.24000     6.209e-14    3.869e-13  
   -0.25000     6.597e-14    3.878e-13  
   -0.26000     6.985e-14    3.881e-13  
   -0.27000     7.373e-14    3.880e-13  
   -0.28000     7.760e-14    3.877e-13  
   -0.29000     8.147e-14    3.873e-13  
   -0.30000     5.123e-14    3.869e-13  
   -0.31000     5.396e-14   -3.024e-12  
   -0.32000     5.668e-14    2.726e-13  
   -0.33000     5.941e-14    2.725e-13  
   -0.34000     6.213e-14    2.725e-13  
   -0.35000     6.487e-14    2.727e-13  
   -0.36000     1.076e-14    2.731e-13  
   -0.37000     1.350e-14   -5.411e-12  
   -0.38000     1.626e-14    2.745e-13  
   -0.39000     1.902e-14    2.754e-13  
   -0.40000     2.180e-14    2.765e-13  
   -0.41000     2.459e-14    2.778e-13  
   -0.42000     2.740e-14    2.792e-13  
   -0.43000     3.023e-14    2.808e-13  
   -0.44000     3.307e-14    2.825e-13  
   -0.45000     3.593e-14    2.843e-13  
   -0.46000     3.882e-14    2.863e-13  
   -0.47000     4.172e-14    2.883e-13  
   -0.48000     4.465e-14    2.905e-13  
   -0.49000     4.760e-14    2.928e-13  
   -0.50000     5.058e-14    2.951e-13  
   -0.51000     5.358e-14    2.976e-13  
   -0.52000     5.660e-14    3.001e-13  
   -0.53000     5.966e-14    3.027e-13  
   -0.54000     6.274e-14    3.053e-13  
   -0.55000     6.584e-14    3.080e-13  
   -0.56000     1.326e-13    3.108e-13  
   -0.57000     1.369e-13    6.680e-12  
   -0.58000     1.413e-13    4.301e-13  
   -0.59000     1.456e-13    4.330e-13  
   -0.60000     1.500e-13    4.360e-13  
   -0.61000     1.544e-13    4.390e-13  
   -0.62000     1.589e-13    4.420e-13  
   -0.63000     4.969e-14    4.451e-13  
   -0.64000     5.420e-14   -1.092e-11  
   -0.65000     5.875e-14    4.513e-13  
   -0.66000     6.333e-14    4.545e-13  
   -0.67000     6.794e-14    4.577e-13  
   -0.68000     7.258e-14    4.609e-13  
   -0.69000     7.725e-14    4.642e-13  
   -0.70000     8.196e-14    4.675e-13  
   -0.71000     8.670e-14    4.708e-13  
   -0.72000     9.148e-14    4.742e-13  
   -0.73000     9.629e-14    4.775e-13  
   -0.74000     1.011e-13    4.809e-13  
   -0.75000     1.060e-13    4.844e-13  
   -0.76000     1.109e-13    4.878e-13  
   -0.77000     1.159e-13    4.913e-13  
   -0.78000     1.209e-13    4.948e-13  
   -0.79000     1.259e-13    4.983e-13  
   -0.80000     1.309e-13    5.019e-13  
   -0.81000     1.360e-13    5.055e-13  
   -0.82000     1.411e-13    5.091e-13  
   -0.83000     1.463e-13    5.126e-13  
   -0.84000     1.515e-13    5.156e-13  
   -0.85000     1.566e-13    5.170e-13  
   -0.86000     1.617e-13    5.149e-13  
   -0.87000     5.283e-14    5.056e-13  
   -0.88000     5.730e-14   -1.088e-11  
   -0.89000     6.114e-14    4.462e-13  
   -0.90000     6.408e-14    3.846e-13  
   -0.91000     1.692e-13    2.940e-13  
   -0.92000     5.676e-14    1.052e-11  
   -0.93000     1.617e-13   -1.125e-11  
   -0.94000     1.528e-13    1.049e-11  
   -0.95000     1.433e-13   -8.903e-13  
   -0.96000     1.928e-14   -9.447e-13  
   -0.97000     1.179e-13   -1.241e-11  
   -0.98000     1.035e-13    9.863e-12  
   -0.99000     2.021e-13   -1.438e-12  
   -1.00000     1.895e-13    9.858e-12  
y
-----------------------------------------------
 ******  
 *sample netlist for bsim-mg

  ******  dc transfer curves tnom=  25.000 temp= -55.000 *****

   *** source        0:vgs =   -0.2000        ***

x

        volt    param        param      
                    ids         -gds    
    0.         -6.528e-15      0.       
 -1.0000e-02    1.961e-12   -1.960e-11  
 -2.0000e-02    3.130e-12    1.968e-10  
 -3.0000e-02    3.809e-12    1.169e-10  
 -4.0000e-02    4.205e-12    6.782e-11  
 -5.0000e-02    4.449e-12    3.961e-11  
 -6.0000e-02    4.606e-12    2.441e-11  
 -7.0000e-02    4.728e-12    1.577e-11  
 -8.0000e-02    4.819e-12    1.214e-11  
 -9.0000e-02    4.905e-12    9.147e-12  
   -0.10000     4.963e-12    8.530e-12  
   -0.11000     5.037e-12    5.826e-12  
   -0.12000     5.087e-12    7.432e-12  
   -0.13000     5.157e-12    5.016e-12  
   -0.14000     5.227e-12    6.923e-12  
   -0.15000     5.275e-12    7.089e-12  
   -0.16000     5.307e-12    4.741e-12  
   -0.17000     5.366e-12    3.187e-12  
   -0.18000     5.427e-12    5.964e-12  
   -0.19000     5.490e-12    6.072e-12  
   -0.20000     5.526e-12    6.297e-12  
   -0.21000     5.613e-12    3.608e-12  
   -0.22000     5.651e-12    8.689e-12  
   -0.23000     5.720e-12    3.828e-12  
   -0.24000     5.768e-12    6.880e-12  
   -0.25000     5.821e-12    4.835e-12  
   -0.26000     5.908e-12    5.292e-12  
   -0.27000     5.972e-12    8.705e-12  
   -0.28000     6.014e-12    6.320e-12  
   -0.29000     6.031e-12    4.276e-12  
   -0.30000     6.109e-12    1.665e-12  
   -0.31000     6.170e-12    7.809e-12  
   -0.32000     6.259e-12    6.111e-12  
   -0.33000     6.333e-12    8.849e-12  
   -0.34000     6.375e-12    7.383e-12  
   -0.35000     6.461e-12    4.214e-12  
   -0.36000     6.514e-12    8.665e-12  
   -0.37000     6.572e-12    5.276e-12  
   -0.38000     6.620e-12    5.754e-12  
   -0.39000     6.689e-12    4.873e-12  
   -0.40000     6.807e-12    6.836e-12  
   -0.41000     6.830e-12    1.187e-11  
   -0.42000     6.905e-12    2.248e-12  
   -0.43000     6.996e-12    7.520e-12  
   -0.44000     7.084e-12    9.043e-12  
   -0.45000     7.129e-12    8.865e-12  
   -0.46000     7.231e-12    4.484e-12  
   -0.47000     7.288e-12    1.023e-11  
   -0.48000     7.347e-12    5.624e-12  
   -0.49000     7.415e-12    5.915e-12  
   -0.50000     7.488e-12    6.779e-12  
   -0.51000     7.567e-12    7.305e-12  
   -0.52000     7.597e-12    7.948e-12  
   -0.53000     7.689e-12    3.025e-12  
   -0.54000     7.733e-12    9.133e-12  
   -0.55000     7.836e-12    4.444e-12  
   -0.56000     7.895e-12    1.033e-11  
   -0.57000     7.897e-12    5.878e-12  
   -0.58000     8.084e-12    1.766e-13  
   -0.59000     8.098e-12    1.869e-11  
   -0.60000     8.186e-12    1.405e-12  
   -0.61000     8.282e-12    8.789e-12  
   -0.62000     8.315e-12    9.583e-12  
   -0.63000     8.426e-12    3.332e-12  
   -0.64000     8.472e-12    1.107e-11  
   -0.65000     8.597e-12    4.598e-12  
   -0.66000     8.656e-12    1.257e-11  
   -0.67000     8.797e-12    5.879e-12  
   -0.68000     8.946e-12    1.409e-11  
   -0.69000     8.911e-12    1.491e-11  
   -0.70000     9.076e-12   -3.483e-12  
   -0.71000     9.054e-12    1.644e-11  
   -0.72000     9.234e-12   -2.164e-12  
   -0.73000     9.309e-12    1.800e-11  
   -0.74000     9.421e-12    7.470e-12  
   -0.75000     9.512e-12    1.127e-11  
   -0.76000     9.524e-12    9.048e-12  
   -0.77000     9.631e-12    1.259e-12  
   -0.78000     9.746e-12    1.064e-11  
   -0.79000     9.780e-12    1.150e-11  
   -0.80000     9.911e-12    3.384e-12  
   -0.81000     1.005e-11    1.312e-11  
   -0.82000     1.011e-11    1.399e-11  
   -0.83000     1.026e-11    5.544e-12  
   -0.84000     1.033e-11    1.563e-11  
   -0.85000     1.039e-11    6.968e-12  
   -0.86000     1.057e-11    5.924e-12  
   -0.87000     1.055e-11    1.818e-11  
   -0.88000     1.075e-11   -2.178e-12  
   -0.89000     1.084e-11    1.987e-11  
   -0.90000     1.085e-11    9.406e-12  
   -0.91000     1.107e-11    8.351e-14  
   -0.92000     1.119e-11    2.248e-11  
   -0.93000     1.132e-11    1.203e-11  
   -0.94000     1.135e-11    1.295e-11  
   -0.95000     1.150e-11    3.190e-12  
   -0.96000     1.154e-11    1.468e-11  
   -0.97000     1.160e-11    4.218e-12  
   -0.98000     1.177e-11    5.444e-12  
   -0.99000     1.172e-11    1.721e-11  
   -1.00000     1.191e-11   -4.727e-12  
y
-----------------------------------------------
 ******  
 *sample netlist for bsim-mg

  ******  dc transfer curves tnom=  25.000 temp= -55.000 *****

   *** source        0:vgs =   -0.3000        ***

x

        volt    param        param      
                    ids         -gds    
    0.         -6.353e-15      0.       
 -1.0000e-02    2.735e-10   -1.191e-09  
 -2.0000e-02    4.363e-10    2.735e-08  
 -3.0000e-02    5.309e-10    1.629e-08  
 -4.0000e-02    5.861e-10    9.457e-09  
 -5.0000e-02    6.196e-10    5.516e-09  
 -6.0000e-02    6.415e-10    3.355e-09  
 -7.0000e-02    6.571e-10    2.191e-09  
 -8.0000e-02    6.692e-10    1.560e-09  
 -9.0000e-02    6.792e-10    1.205e-09  
   -0.10000     6.880e-10    1.002e-09  
   -0.11000     6.960e-10    8.775e-10  
   -0.12000     7.035e-10    8.023e-10  
   -0.13000     7.108e-10    7.538e-10  
   -0.14000     7.178e-10    7.262e-10  
   -0.15000     7.247e-10    7.027e-10  
   -0.16000     7.316e-10    6.928e-10  
   -0.17000     7.383e-10    6.810e-10  
   -0.18000     7.451e-10    6.775e-10  
   -0.19000     7.519e-10    6.782e-10  
   -0.20000     7.586e-10    6.782e-10  
   -0.21000     7.654e-10    6.752e-10  
   -0.22000     7.722e-10    6.775e-10  
   -0.23000     7.791e-10    6.816e-10  
   -0.24000     7.859e-10    6.812e-10  
   -0.25000     7.928e-10    6.854e-10  
   -0.26000     7.997e-10    6.896e-10  
   -0.27000     8.067e-10    6.898e-10  
   -0.28000     8.137e-10    6.993e-10  
   -0.29000     8.208e-10    6.973e-10  
   -0.30000     8.278e-10    7.091e-10  
   -0.31000     8.350e-10    7.055e-10  
   -0.32000     8.421e-10    7.146e-10  
   -0.33000     8.493e-10    7.107e-10  
   -0.34000     8.566e-10    7.232e-10  
   -0.35000     8.639e-10    7.256e-10  
   -0.36000     8.712e-10    7.365e-10  
   -0.37000     8.786e-10    7.311e-10  
   -0.38000     8.861e-10    7.419e-10  
   -0.39000     8.936e-10    7.436e-10  
   -0.40000     9.012e-10    7.502e-10  
   -0.41000     9.087e-10    7.589e-10  
   -0.42000     9.163e-10    7.510e-10  
   -0.43000     9.240e-10    7.663e-10  
   -0.44000     9.318e-10    7.698e-10  
   -0.45000     9.395e-10    7.749e-10  
   -0.46000     9.474e-10    7.689e-10  
   -0.47000     9.553e-10    7.913e-10  
   -0.48000     9.632e-10    7.864e-10  
   -0.49000     9.711e-10    7.933e-10  
   -0.50000     9.792e-10    7.948e-10  
   -0.51000     9.873e-10    8.080e-10  
   -0.52000     9.954e-10    8.048e-10  
   -0.53000     1.004e-09    8.134e-10  
   -0.54000     1.012e-09    8.166e-10  
   -0.55000     1.020e-09    8.206e-10  
   -0.56000     1.028e-09    8.355e-10  
   -0.57000     1.037e-09    8.355e-10  
   -0.58000     1.045e-09    8.397e-10  
   -0.59000     1.054e-09    8.345e-10  
   -0.60000     1.062e-09    8.619e-10  
   -0.61000     1.071e-09    8.530e-10  
   -0.62000     1.080e-09    8.585e-10  
   -0.63000     1.088e-09    8.666e-10  
   -0.64000     1.097e-09    8.612e-10  
   -0.65000     1.106e-09    8.775e-10  
   -0.66000     1.115e-09    8.955e-10  
   -0.67000     1.124e-09    8.830e-10  
   -0.68000     1.133e-09    8.900e-10  
   -0.69000     1.142e-09    9.089e-10  
   -0.70000     1.151e-09    8.939e-10  
   -0.71000     1.160e-09    9.175e-10  
   -0.72000     1.169e-09    9.111e-10  
   -0.73000     1.179e-09    9.163e-10  
   -0.74000     1.188e-09    9.333e-10  
   -0.75000     1.197e-09    9.249e-10  
   -0.76000     1.207e-09    9.428e-10  
   -0.77000     1.216e-09    9.383e-10  
   -0.78000     1.226e-09    9.569e-10  
   -0.79000     1.235e-09    9.507e-10  
   -0.80000     1.245e-09    9.702e-10  
   -0.81000     1.255e-09    9.560e-10  
   -0.82000     1.265e-09    9.854e-10  
   -0.83000     1.274e-09    9.835e-10  
   -0.84000     1.284e-09    9.819e-10  
   -0.85000     1.294e-09    9.921e-10  
   -0.86000     1.304e-09    1.001e-09  
   -0.87000     1.314e-09    1.012e-09  
   -0.88000     1.325e-09    1.001e-09  
   -0.89000     1.335e-09    1.013e-09  
   -0.90000     1.345e-09    1.024e-09  
   -0.91000     1.355e-09    1.036e-09  
   -0.92000     1.366e-09    1.027e-09  
   -0.93000     1.376e-09    1.051e-09  
   -0.94000     1.387e-09    1.031e-09  
   -0.95000     1.398e-09    1.056e-09  
   -0.96000     1.408e-09    1.071e-09  
   -0.97000     1.419e-09    1.064e-09  
   -0.98000     1.430e-09    1.068e-09  
   -0.99000     1.441e-09    1.095e-09  
   -1.00000     1.452e-09    1.078e-09  
y
-----------------------------------------------
 ******  
 *sample netlist for bsim-mg

  ******  dc transfer curves tnom=  25.000 temp= -55.000 *****

   *** source        0:vgs =   -0.4000        ***

x

        volt    param        param      
                    ids         -gds    
    0.         -2.517e-14      0.       
 -1.0000e-02    2.342e-08   -1.452e-07  
 -2.0000e-02    3.957e-08    2.342e-06  
 -3.0000e-02    5.012e-08    1.615e-06  
 -4.0000e-02    5.680e-08    1.056e-06  
 -5.0000e-02    6.102e-08    6.677e-07  
 -6.0000e-02    6.376e-08    4.218e-07  
 -7.0000e-02    6.564e-08    2.743e-07  
 -8.0000e-02    6.701e-08    1.878e-07  
 -9.0000e-02    6.807e-08    1.369e-07  
   -0.10000     6.894e-08    1.064e-07  
   -0.11000     6.970e-08    8.748e-08  
   -0.12000     7.037e-08    7.546e-08  
   -0.13000     7.100e-08    6.755e-08  
   -0.14000     7.158e-08    6.220e-08  
   -0.15000     7.214e-08    5.850e-08  
   -0.16000     7.268e-08    5.586e-08  
   -0.17000     7.321e-08    5.396e-08  
   -0.18000     7.372e-08    5.256e-08  
   -0.19000     7.423e-08    5.153e-08  
   -0.20000     7.473e-08    5.075e-08  
   -0.21000     7.523e-08    5.017e-08  
   -0.22000     7.572e-08    4.972e-08  
   -0.23000     7.621e-08    4.940e-08  
   -0.24000     7.670e-08    4.914e-08  
   -0.25000     7.719e-08    4.897e-08  
   -0.26000     7.768e-08    4.884e-08  
   -0.27000     7.817e-08    4.875e-08  
   -0.28000     7.865e-08    4.871e-08  
   -0.29000     7.914e-08    4.868e-08  
   -0.30000     7.963e-08    4.868e-08  
   -0.31000     8.011e-08    4.870e-08  
   -0.32000     8.060e-08    4.873e-08  
   -0.33000     8.109e-08    4.878e-08  
   -0.34000     8.158e-08    4.884e-08  
   -0.35000     8.207e-08    4.892e-08  
   -0.36000     8.256e-08    4.899e-08  
   -0.37000     8.305e-08    4.908e-08  
   -0.38000     8.354e-08    4.917e-08  
   -0.39000     8.404e-08    4.927e-08  
   -0.40000     8.453e-08    4.938e-08  
   -0.41000     8.503e-08    4.948e-08  
   -0.42000     8.553e-08    4.960e-08  
   -0.43000     8.602e-08    4.972e-08  
   -0.44000     8.652e-08    4.984e-08  
   -0.45000     8.702e-08    4.996e-08  
   -0.46000     8.753e-08    5.009e-08  
   -0.47000     8.803e-08    5.020e-08  
   -0.48000     8.853e-08    5.034e-08  
   -0.49000     8.904e-08    5.048e-08  
   -0.50000     8.955e-08    5.060e-08  
   -0.51000     9.006e-08    5.075e-08  
   -0.52000     9.057e-08    5.088e-08  
   -0.53000     9.108e-08    5.102e-08  
   -0.54000     9.159e-08    5.117e-08  
   -0.55000     9.211e-08    5.131e-08  
   -0.56000     9.262e-08    5.144e-08  
   -0.57000     9.314e-08    5.160e-08  
   -0.58000     9.366e-08    5.173e-08  
   -0.59000     9.418e-08    5.188e-08  
   -0.60000     9.470e-08    5.203e-08  
   -0.61000     9.522e-08    5.219e-08  
   -0.62000     9.575e-08    5.234e-08  
   -0.63000     9.628e-08    5.248e-08  
   -0.64000     9.680e-08    5.264e-08  
   -0.65000     9.733e-08    5.279e-08  
   -0.66000     9.786e-08    5.294e-08  
   -0.67000     9.840e-08    5.310e-08  
   -0.68000     9.893e-08    5.324e-08  
   -0.69000     9.947e-08    5.339e-08  
   -0.70000     1.000e-07    5.355e-08  
   -0.71000     1.005e-07    5.373e-08  
   -0.72000     1.011e-07    5.386e-08  
   -0.73000     1.016e-07    5.403e-08  
   -0.74000     1.022e-07    5.419e-08  
   -0.75000     1.027e-07    5.434e-08  
   -0.76000     1.033e-07    5.450e-08  
   -0.77000     1.038e-07    5.466e-08  
   -0.78000     1.044e-07    5.483e-08  
   -0.79000     1.049e-07    5.498e-08  
   -0.80000     1.055e-07    5.515e-08  
   -0.81000     1.060e-07    5.530e-08  
   -0.82000     1.066e-07    5.547e-08  
   -0.83000     1.071e-07    5.562e-08  
   -0.84000     1.077e-07    5.579e-08  
   -0.85000     1.083e-07    5.595e-08  
   -0.86000     1.088e-07    5.612e-08  
   -0.87000     1.094e-07    5.629e-08  
   -0.88000     1.099e-07    5.644e-08  
   -0.89000     1.105e-07    5.662e-08  
   -0.90000     1.111e-07    5.677e-08  
   -0.91000     1.117e-07    5.694e-08  
   -0.92000     1.122e-07    5.712e-08  
   -0.93000     1.128e-07    5.728e-08  
   -0.94000     1.134e-07    5.744e-08  
   -0.95000     1.140e-07    5.760e-08  
   -0.96000     1.145e-07    5.778e-08  
   -0.97000     1.151e-07    5.795e-08  
   -0.98000     1.157e-07    5.811e-08  
   -0.99000     1.163e-07    5.829e-08  
   -1.00000     1.169e-07    5.845e-08  
y
-----------------------------------------------
 ******  
 *sample netlist for bsim-mg

  ******  dc transfer curves tnom=  25.000 temp= -55.000 *****

   *** source        0:vgs =   -0.5000        ***

x

        volt    param        param      
                    ids         -gds    
    0.         -9.925e-14      0.       
 -1.0000e-02    1.722e-07   -1.169e-05  
 -2.0000e-02    3.243e-07    1.722e-05  
 -3.0000e-02    4.566e-07    1.522e-05  
 -4.0000e-02    5.694e-07    1.322e-05  
 -5.0000e-02    6.638e-07    1.128e-05  
 -6.0000e-02    7.415e-07    9.444e-06  
 -7.0000e-02    8.043e-07    7.764e-06  
 -8.0000e-02    8.545e-07    6.281e-06  
 -9.0000e-02    8.942e-07    5.017e-06  
   -0.10000     9.256e-07    3.975e-06  
   -0.11000     9.504e-07    3.138e-06  
   -0.12000     9.702e-07    2.483e-06  
   -0.13000     9.862e-07    1.980e-06  
   -0.14000     9.993e-07    1.598e-06  
   -0.15000     1.010e-06    1.311e-06  
   -0.16000     1.020e-06    1.096e-06  
   -0.17000     1.028e-06    9.344e-07  
   -0.18000     1.035e-06    8.130e-07  
   -0.19000     1.041e-06    7.211e-07  
   -0.20000     1.047e-06    6.508e-07  
   -0.21000     1.053e-06    5.966e-07  
   -0.22000     1.058e-06    5.543e-07  
   -0.23000     1.063e-06    5.209e-07  
   -0.24000     1.068e-06    4.942e-07  
   -0.25000     1.072e-06    4.726e-07  
   -0.26000     1.077e-06    4.550e-07  
   -0.27000     1.081e-06    4.404e-07  
   -0.28000     1.085e-06    4.282e-07  
   -0.29000     1.089e-06    4.179e-07  
   -0.30000     1.093e-06    4.091e-07  
   -0.31000     1.097e-06    4.015e-07  
   -0.32000     1.101e-06    3.950e-07  
   -0.33000     1.105e-06    3.892e-07  
   -0.34000     1.109e-06    3.841e-07  
   -0.35000     1.113e-06    3.796e-07  
   -0.36000     1.116e-06    3.756e-07  
   -0.37000     1.120e-06    3.720e-07  
   -0.38000     1.124e-06    3.687e-07  
   -0.39000     1.127e-06    3.658e-07  
   -0.40000     1.131e-06    3.631e-07  
   -0.41000     1.134e-06    3.606e-07  
   -0.42000     1.138e-06    3.584e-07  
   -0.43000     1.142e-06    3.563e-07  
   -0.44000     1.145e-06    3.544e-07  
   -0.45000     1.149e-06    3.526e-07  
   -0.46000     1.152e-06    3.510e-07  
   -0.47000     1.156e-06    3.494e-07  
   -0.48000     1.159e-06    3.480e-07  
   -0.49000     1.163e-06    3.466e-07  
   -0.50000     1.166e-06    3.454e-07  
   -0.51000     1.169e-06    3.442e-07  
   -0.52000     1.173e-06    3.431e-07  
   -0.53000     1.176e-06    3.421e-07  
   -0.54000     1.180e-06    3.412e-07  
   -0.55000     1.183e-06    3.403e-07  
   -0.56000     1.186e-06    3.394e-07  
   -0.57000     1.190e-06    3.386e-07  
   -0.58000     1.193e-06    3.378e-07  
   -0.59000     1.197e-06    3.371e-07  
   -0.60000     1.200e-06    3.365e-07  
   -0.61000     1.203e-06    3.358e-07  
   -0.62000     1.207e-06    3.352e-07  
   -0.63000     1.210e-06    3.347e-07  
   -0.64000     1.213e-06    3.341e-07  
   -0.65000     1.217e-06    3.336e-07  
   -0.66000     1.220e-06    3.331e-07  
   -0.67000     1.223e-06    3.327e-07  
   -0.68000     1.227e-06    3.322e-07  
   -0.69000     1.230e-06    3.319e-07  
   -0.70000     1.233e-06    3.315e-07  
   -0.71000     1.237e-06    3.311e-07  
   -0.72000     1.240e-06    3.308e-07  
   -0.73000     1.243e-06    3.304e-07  
   -0.74000     1.246e-06    3.302e-07  
   -0.75000     1.250e-06    3.299e-07  
   -0.76000     1.253e-06    3.296e-07  
   -0.77000     1.256e-06    3.293e-07  
   -0.78000     1.260e-06    3.291e-07  
   -0.79000     1.263e-06    3.289e-07  
   -0.80000     1.266e-06    3.287e-07  
   -0.81000     1.269e-06    3.285e-07  
   -0.82000     1.273e-06    3.283e-07  
   -0.83000     1.276e-06    3.281e-07  
   -0.84000     1.279e-06    3.280e-07  
   -0.85000     1.283e-06    3.278e-07  
   -0.86000     1.286e-06    3.277e-07  
   -0.87000     1.289e-06    3.276e-07  
   -0.88000     1.292e-06    3.274e-07  
   -0.89000     1.296e-06    3.273e-07  
   -0.90000     1.299e-06    3.272e-07  
   -0.91000     1.302e-06    3.272e-07  
   -0.92000     1.305e-06    3.271e-07  
   -0.93000     1.309e-06    3.270e-07  
[...]
   -0.96000     1.483e-04    2.289e-05  
   -0.97000     1.485e-04    2.268e-05  
   -0.98000     1.488e-04    2.247e-05  
   -0.99000     1.490e-04    2.227e-05  
   -1.00000     1.492e-04    2.207e-05  
y
-----------------------------------------------
 ******  
 *sample netlist for bsim-mg

  ******  dc transfer curves tnom=  25.000 temp= 100.000 *****

   *** source        0:vgs =   -0.7000        ***

x

        volt    param        param      
                    ids         -gds    
    0.         -4.119e-13      0.       
 -1.0000e-02    1.030e-05   -1.492e-02  
 -2.0000e-02    2.040e-05    1.030e-03  
 -3.0000e-02    3.026e-05    1.010e-03  
 -4.0000e-02    3.985e-05    9.860e-04  
 -5.0000e-02    4.915e-05    9.593e-04  
 -6.0000e-02    5.812e-05    9.296e-04  
 -7.0000e-02    6.676e-05    8.976e-04  
 -8.0000e-02    7.505e-05    8.639e-04  
 -9.0000e-02    8.300e-05    8.292e-04  
   -0.10000     9.059e-05    7.943e-04  
   -0.11000     9.785e-05    7.598e-04  
   -0.12000     1.048e-04    7.259e-04  
   -0.13000     1.114e-04    6.929e-04  
   -0.14000     1.177e-04    6.611e-04  
   -0.15000     1.237e-04    6.303e-04  
   -0.16000     1.294e-04    6.005e-04  
   -0.17000     1.349e-04    5.717e-04  
   -0.18000     1.400e-04    5.438e-04  
   -0.19000     1.449e-04    5.167e-04  
   -0.20000     1.496e-04    4.905e-04  
   -0.21000     1.540e-04    4.652e-04  
   -0.22000     1.582e-04    4.409e-04  
   -0.23000     1.621e-04    4.176e-04  
   -0.24000     1.659e-04    3.953e-04  
   -0.25000     1.694e-04    3.741e-04  
   -0.26000     1.727e-04    3.540e-04  
   -0.27000     1.759e-04    3.350e-04  
   -0.28000     1.789e-04    3.172e-04  
   -0.29000     1.818e-04    3.004e-04  
   -0.30000     1.845e-04    2.847e-04  
   -0.31000     1.870e-04    2.700e-04  
   -0.32000     1.895e-04    2.563e-04  
   -0.33000     1.918e-04    2.434e-04  
   -0.34000     1.940e-04    2.315e-04  
   -0.35000     1.961e-04    2.203e-04  
   -0.36000     1.981e-04    2.100e-04  
   -0.37000     2.000e-04    2.003e-04  
   -0.38000     2.018e-04    1.913e-04  
   -0.39000     2.036e-04    1.828e-04  
   -0.40000     2.053e-04    1.750e-04  
   -0.41000     2.069e-04    1.677e-04  
   -0.42000     2.084e-04    1.608e-04  
   -0.43000     2.099e-04    1.544e-04  
   -0.44000     2.113e-04    1.484e-04  
   -0.45000     2.127e-04    1.428e-04  
   -0.46000     2.140e-04    1.376e-04  
   -0.47000     2.153e-04    1.327e-04  
   -0.48000     2.165e-04    1.281e-04  
   -0.49000     2.177e-04    1.237e-04  
   -0.50000     2.189e-04    1.196e-04  
   -0.51000     2.200e-04    1.158e-04  
   -0.52000     2.211e-04    1.122e-04  
   -0.53000     2.222e-04    1.087e-04  
   -0.54000     2.232e-04    1.055e-04  
   -0.55000     2.242e-04    1.025e-04  
   -0.56000     2.251e-04    9.957e-05  
   -0.57000     2.261e-04    9.684e-05  
   -0.58000     2.270e-04    9.424e-05  
   -0.59000     2.279e-04    9.179e-05  
   -0.60000     2.288e-04    8.945e-05  
   -0.61000     2.296e-04    8.723e-05  
   -0.62000     2.305e-04    8.512e-05  
   -0.63000     2.313e-04    8.311e-05  
   -0.64000     2.321e-04    8.120e-05  
   -0.65000     2.328e-04    7.937e-05  
   -0.66000     2.336e-04    7.763e-05  
   -0.67000     2.343e-04    7.596e-05  
   -0.68000     2.351e-04    7.437e-05  
   -0.69000     2.358e-04    7.285e-05  
   -0.70000     2.365e-04    7.139e-05  
   -0.71000     2.372e-04    7.000e-05  
   -0.72000     2.378e-04    6.866e-05  
   -0.73000     2.385e-04    6.737e-05  
   -0.74000     2.392e-04    6.614e-05  
   -0.75000     2.398e-04    6.496e-05  
   -0.76000     2.404e-04    6.382e-05  
   -0.77000     2.410e-04    6.273e-05  
   -0.78000     2.416e-04    6.167e-05  
   -0.79000     2.422e-04    6.066e-05  
   -0.80000     2.428e-04    5.968e-05  
   -0.81000     2.434e-04    5.874e-05  
   -0.82000     2.440e-04    5.783e-05  
   -0.83000     2.445e-04    5.696e-05  
   -0.84000     2.451e-04    5.611e-05  
   -0.85000     2.456e-04    5.529e-05  
   -0.86000     2.462e-04    5.450e-05  
   -0.87000     2.467e-04    5.374e-05  
   -0.88000     2.472e-04    5.300e-05  
   -0.89000     2.477e-04    5.229e-05  
   -0.90000     2.483e-04    5.159e-05  
   -0.91000     2.488e-04    5.092e-05  
   -0.92000     2.493e-04    5.027e-05  
   -0.93000     2.497e-04    4.964e-05  
   -0.94000     2.502e-04    4.903e-05  
   -0.95000     2.507e-04    4.843e-05  
   -0.96000     2.512e-04    4.786e-05  
   -0.97000     2.516e-04    4.730e-05  
   -0.98000     2.521e-04    4.675e-05  
   -0.99000     2.526e-04    4.623e-05  
   -1.00000     2.530e-04    4.571e-05  
y
-----------------------------------------------
 ******  
 *sample netlist for bsim-mg

  ******  dc transfer curves tnom=  25.000 temp= 100.000 *****

   *** source        0:vgs =   -0.8000        ***

x

        volt    param        param      
                    ids         -gds    
    0.         -2.571e-13      0.       
 -1.0000e-02    1.194e-05   -2.530e-02  
 -2.0000e-02    2.372e-05    1.194e-03  
 -3.0000e-02    3.531e-05    1.178e-03  
 -4.0000e-02    4.669e-05    1.159e-03  
 -5.0000e-02    5.782e-05    1.138e-03  
 -6.0000e-02    6.869e-05    1.113e-03  
 -7.0000e-02    7.928e-05    1.087e-03  
 -8.0000e-02    8.956e-05    1.058e-03  
 -9.0000e-02    9.953e-05    1.028e-03  
   -0.10000     1.092e-04    9.973e-04  
   -0.11000     1.185e-04    9.658e-04  
   -0.12000     1.276e-04    9.341e-04  
   -0.13000     1.363e-04    9.028e-04  
   -0.14000     1.447e-04    8.720e-04  
   -0.15000     1.528e-04    8.420e-04  
   -0.16000     1.607e-04    8.129e-04  
   -0.17000     1.682e-04    7.847e-04  
   -0.18000     1.756e-04    7.573e-04  
   -0.19000     1.826e-04    7.308e-04  
   -0.20000     1.894e-04    7.051e-04  
   -0.21000     1.960e-04    6.800e-04  
   -0.22000     2.023e-04    6.556e-04  
   -0.23000     2.084e-04    6.318e-04  
   -0.24000     2.142e-04    6.085e-04  
   -0.25000     2.199e-04    5.858e-04  
   -0.26000     2.253e-04    5.636e-04  
   -0.27000     2.305e-04    5.421e-04  
   -0.28000     2.355e-04    5.211e-04  
   -0.29000     2.403e-04    5.008e-04  
   -0.30000     2.449e-04    4.812e-04  
   -0.31000     2.494e-04    4.623e-04  
   -0.32000     2.536e-04    4.441e-04  
   -0.33000     2.577e-04    4.266e-04  
   -0.34000     2.617e-04    4.098e-04  
   -0.35000     2.655e-04    3.938e-04  
   -0.36000     2.691e-04    3.784e-04  
   -0.37000     2.726e-04    3.638e-04  
   -0.38000     2.760e-04    3.499e-04  
   -0.39000     2.792e-04    3.367e-04  
   -0.40000     2.823e-04    3.241e-04  
   -0.41000     2.853e-04    3.122e-04  
   -0.42000     2.882e-04    3.008e-04  
   -0.43000     2.910e-04    2.900e-04  
   -0.44000     2.937e-04    2.798e-04  
   -0.45000     2.963e-04    2.701e-04  
   -0.46000     2.989e-04    2.609e-04  
   -0.47000     3.013e-04    2.522e-04  
   -0.48000     3.037e-04    2.439e-04  
   -0.49000     3.060e-04    2.360e-04  
   -0.50000     3.082e-04    2.286e-04  
   -0.51000     3.103e-04    2.215e-04  
   -0.52000     3.124e-04    2.148e-04  
   -0.53000     3.144e-04    2.084e-04  
   -0.54000     3.164e-04    2.023e-04  
   -0.55000     3.183e-04    1.965e-04  
   -0.56000     3.202e-04    1.910e-04  
   -0.57000     3.220e-04    1.857e-04  
   -0.58000     3.237e-04    1.807e-04  
   -0.59000     3.254e-04    1.760e-04  
   -0.60000     3.271e-04    1.714e-04  
   -0.61000     3.287e-04    1.671e-04  
   -0.62000     3.303e-04    1.630e-04  
   -0.63000     3.319e-04    1.590e-04  
   -0.64000     3.334e-04    1.552e-04  
   -0.65000     3.349e-04    1.516e-04  
   -0.66000     3.363e-04    1.482e-04  
   -0.67000     3.377e-04    1.448e-04  
   -0.68000     3.391e-04    1.417e-04  
   -0.69000     3.405e-04    1.386e-04  
   -0.70000     3.418e-04    1.357e-04  
   -0.71000     3.431e-04    1.329e-04  
   -0.72000     3.444e-04    1.302e-04  
   -0.73000     3.456e-04    1.276e-04  
   -0.74000     3.469e-04    1.251e-04  
   -0.75000     3.481e-04    1.227e-04  
   -0.76000     3.493e-04    1.204e-04  
   -0.77000     3.504e-04    1.182e-04  
   -0.78000     3.516e-04    1.161e-04  
   -0.79000     3.527e-04    1.140e-04  
   -0.80000     3.538e-04    1.120e-04  
   -0.81000     3.549e-04    1.101e-04  
   -0.82000     3.559e-04    1.083e-04  
   -0.83000     3.570e-04    1.065e-04  
   -0.84000     3.580e-04    1.048e-04  
   -0.85000     3.590e-04    1.031e-04  
   -0.86000     3.600e-04    1.015e-04  
   -0.87000     3.610e-04    9.994e-05  
   -0.88000     3.620e-04    9.843e-05  
   -0.89000     3.629e-04    9.697e-05  
   -0.90000     3.639e-04    9.555e-05  
   -0.91000     3.648e-04    9.418e-05  
   -0.92000     3.657e-04    9.285e-05  
   -0.93000     3.666e-04    9.156e-05  
   -0.94000     3.675e-04    9.031e-05  
   -0.95000     3.684e-04    8.909e-05  
   -0.96000     3.693e-04    8.791e-05  
   -0.97000     3.701e-04    8.676e-05  
   -0.98000     3.710e-04    8.565e-05  
   -0.99000     3.718e-04    8.457e-05  
   -1.00000     3.726e-04    8.352e-05  
y
-----------------------------------------------
 ******  
 *sample netlist for bsim-mg

  ******  dc transfer curves tnom=  25.000 temp= 100.000 *****

   *** source        0:vgs =   -0.9000        ***

x

        volt    param        param      
                    ids         -gds    
    0.         -1.555e-13      0.       
 -1.0000e-02    1.325e-05   -3.726e-02  
 -2.0000e-02    2.638e-05    1.325e-03  
 -3.0000e-02    3.935e-05    1.312e-03  
 -4.0000e-02    5.214e-05    1.297e-03  
 -5.0000e-02    6.474e-05    1.279e-03  
 -6.0000e-02    7.712e-05    1.260e-03  
 -7.0000e-02    8.925e-05    1.238e-03  
 -8.0000e-02    1.011e-04    1.214e-03  
 -9.0000e-02    1.127e-04    1.188e-03  
   -0.10000     1.241e-04    1.161e-03  
   -0.11000     1.351e-04    1.133e-03  
   -0.12000     1.459e-04    1.105e-03  
   -0.13000     1.564e-04    1.076e-03  
   -0.14000     1.666e-04    1.047e-03  
   -0.15000     1.765e-04    1.019e-03  
   -0.16000     1.861e-04    9.907e-04  
   -0.17000     1.955e-04    9.633e-04  
   -0.18000     2.046e-04    9.366e-04  
   -0.19000     2.134e-04    9.107e-04  
   -0.20000     2.220e-04    8.857e-04  
   -0.21000     2.304e-04    8.614e-04  
   -0.22000     2.386e-04    8.378e-04  
   -0.23000     2.465e-04    8.150e-04  
   -0.24000     2.542e-04    7.927e-04  
   -0.25000     2.617e-04    7.710e-04  
   -0.26000     2.690e-04    7.498e-04  
   -0.27000     2.761e-04    7.290e-04  
   -0.28000     2.830e-04    7.086e-04  
   -0.29000     2.897e-04    6.886e-04  
   -0.30000     2.961e-04    6.690e-04  
   -0.31000     3.025e-04    6.497e-04  
   -0.32000     3.086e-04    6.309e-04  
   -0.33000     3.145e-04    6.124e-04  
   -0.34000     3.203e-04    5.943e-04  
   -0.35000     3.259e-04    5.767e-04  
   -0.36000     3.313e-04    5.594e-04  
   -0.37000     3.366e-04    5.427e-04  
   -0.38000     3.417e-04    5.264e-04  
   -0.39000     3.466e-04    5.105e-04  
   -0.40000     3.514e-04    4.952e-04  
   -0.41000     3.561e-04    4.803e-04  
   -0.42000     3.606e-04    4.659e-04  
   -0.43000     3.650e-04    4.521e-04  
   -0.44000     3.693e-04    4.387e-04  
   -0.45000     3.734e-04    4.258e-04  
   -0.46000     3.774e-04    4.133e-04  
   -0.47000     3.813e-04    4.013e-04  
   -0.48000     3.851e-04    3.898e-04  
   -0.49000     3.888e-04    3.788e-04  
   -0.50000     3.924e-04    3.681e-04  
   -0.51000     3.958e-04    3.579e-04  
   -0.52000     3.992e-04    3.481e-04  
   -0.53000     4.025e-04    3.387e-04  
   -0.54000     4.057e-04    3.296e-04  
   -0.55000     4.089e-04    3.209e-04  
   -0.56000     4.119e-04    3.126e-04  
   -0.57000     4.149e-04    3.046e-04  
   -0.58000     4.178e-04    2.969e-04  
   -0.59000     4.206e-04    2.895e-04  
   -0.60000     4.233e-04    2.825e-04  
   -0.61000     4.260e-04    2.756e-04  
   -0.62000     4.287e-04    2.691e-04  
   -0.63000     4.312e-04    2.628e-04  
   -0.64000     4.337e-04    2.568e-04  
   -0.65000     4.362e-04    2.510e-04  
   -0.66000     4.386e-04    2.454e-04  
   -0.67000     4.409e-04    2.400e-04  
   -0.68000     4.432e-04    2.349e-04  
   -0.69000     4.455e-04    2.299e-04  
   -0.70000     4.477e-04    2.251e-04  
   -0.71000     4.499e-04    2.205e-04  
   -0.72000     4.520e-04    2.161e-04  
   -0.73000     4.541e-04    2.118e-04  
   -0.74000     4.561e-04    2.076e-04  
   -0.75000     4.581e-04    2.037e-04  
   -0.76000     4.600e-04    1.998e-04  
   -0.77000     4.620e-04    1.961e-04  
   -0.78000     4.639e-04    1.925e-04  
   -0.79000     4.657e-04    1.891e-04  
   -0.80000     4.675e-04    1.857e-04  
   -0.81000     4.693e-04    1.825e-04  
   -0.82000     4.711e-04    1.794e-04  
   -0.83000     4.728e-04    1.763e-04  
   -0.84000     4.745e-04    1.734e-04  
   -0.85000     4.762e-04    1.706e-04  
   -0.86000     4.779e-04    1.678e-04  
   -0.87000     4.795e-04    1.652e-04  
   -0.88000     4.811e-04    1.626e-04  
   -0.89000     4.827e-04    1.601e-04  
   -0.90000     4.842e-04    1.577e-04  
   -0.91000     4.858e-04    1.553e-04  
   -0.92000     4.873e-04    1.530e-04  
   -0.93000     4.888e-04    1.508e-04  
   -0.94000     4.902e-04    1.487e-04  
   -0.95000     4.917e-04    1.466e-04  
   -0.96000     4.931e-04    1.445e-04  
   -0.97000     4.945e-04    1.426e-04  
   -0.98000     4.959e-04    1.406e-04  
   -0.99000     4.973e-04    1.388e-04  
   -1.00000     4.986e-04    1.370e-04  
y
-----------------------------------------------
 ******  
 *sample netlist for bsim-mg

  ******  dc transfer curves tnom=  25.000 temp= 100.000 *****

   *** source        0:vgs =   -1.0000        ***

x

        volt    param        param      
                    ids         -gds    
    0.         -9.754e-14      0.       
 -1.0000e-02    1.431e-05   -4.986e-02  
 -2.0000e-02    2.852e-05    1.431e-03  
 -3.0000e-02    4.260e-05    1.420e-03  
 -4.0000e-02    5.653e-05    1.408e-03  
 -5.0000e-02    7.030e-05    1.393e-03  
 -6.0000e-02    8.388e-05    1.377e-03  
 -7.0000e-02    9.727e-05    1.359e-03  
 -8.0000e-02    1.104e-04    1.338e-03  
 -9.0000e-02    1.234e-04    1.316e-03  
   -0.10000     1.361e-04    1.293e-03  
   -0.11000     1.485e-04    1.269e-03  
   -0.12000     1.607e-04    1.243e-03  
   -0.13000     1.726e-04    1.217e-03  
   -0.14000     1.842e-04    1.191e-03  
   -0.15000     1.956e-04    1.164e-03  
   -0.16000     2.067e-04    1.138e-03  
   -0.17000     2.175e-04    1.111e-03  
   -0.18000     2.281e-04    1.085e-03  
   -0.19000     2.385e-04    1.060e-03  
   -0.20000     2.486e-04    1.035e-03  
   -0.21000     2.585e-04    1.011e-03  
   -0.22000     2.682e-04    9.882e-04  
   -0.23000     2.776e-04    9.657e-04  
   -0.24000     2.868e-04    9.439e-04  
   -0.25000     2.958e-04    9.228e-04  
   -0.26000     3.047e-04    9.023e-04  
   -0.27000     3.133e-04    8.824e-04  
   -0.28000     3.217e-04    8.631e-04  
   -0.29000     3.300e-04    8.442e-04  
   -0.30000     3.381e-04    8.257e-04  
   -0.31000     3.460e-04    8.076e-04  
   -0.32000     3.537e-04    7.898e-04  
   -0.33000     3.612e-04    7.724e-04  
   -0.34000     3.686e-04    7.552e-04  
   -0.35000     3.758e-04    7.383e-04  
   -0.36000     3.829e-04    7.216e-04  
   -0.37000     3.898e-04    7.052e-04  
   -0.38000     3.965e-04    6.891e-04  
   -0.39000     4.031e-04    6.732e-04  
   -0.40000     4.095e-04    6.576e-04  
   -0.41000     4.158e-04    6.422e-04  
   -0.42000     4.219e-04    6.272e-04  
   -0.43000     4.279e-04    6.124e-04  
   -0.44000     4.337e-04    5.980e-04  
   -0.45000     4.394e-04    5.839e-04  
   -0.46000     4.450e-04    5.700e-04  
   -0.47000     4.504e-04    5.566e-04  
   -0.48000     4.557e-04    5.434e-04  
   -0.49000     4.609e-04    5.306e-04  
   -0.50000     4.660e-04    5.181e-04  
   -0.51000     4.709e-04    5.060e-04  
   -0.52000     4.758e-04    4.942e-04  
   -0.53000     4.805e-04    4.827e-04  
   -0.54000     4.851e-04    4.716e-04  
   -0.55000     4.896e-04    4.608e-04  
   -0.56000     4.940e-04    4.503e-04  
   -0.57000     4.983e-04    4.402e-04  
   -0.58000     5.025e-04    4.303e-04  
   -0.59000     5.066e-04    4.208e-04  
   -0.60000     5.106e-04    4.116e-04  
   -0.61000     5.146e-04    4.026e-04  
   -0.62000     5.184e-04    3.940e-04  
   -0.63000     5.222e-04    3.856e-04  
   -0.64000     5.259e-04    3.775e-04  
   -0.65000     5.295e-04    3.696e-04  
   -0.66000     5.331e-04    3.620e-04  
   -0.67000     5.365e-04    3.546e-04  
   -0.68000     5.399e-04    3.475e-04  
   -0.69000     5.433e-04    3.406e-04  
   -0.70000     5.466e-04    3.339e-04  
   -0.71000     5.498e-04    3.275e-04  
   -0.72000     5.529e-04    3.212e-04  
   -0.73000     5.560e-04    3.152e-04  
   -0.74000     5.591e-04    3.093e-04  
   -0.75000     5.620e-04    3.036e-04  
   -0.76000     5.650e-04    2.981e-04  
   -0.77000     5.678e-04    2.928e-04  
   -0.78000     5.707e-04    2.876e-04  
   -0.79000     5.734e-04    2.826e-04  
   -0.80000     5.762e-04    2.777e-04  
   -0.81000     5.789e-04    2.730e-04  
   -0.82000     5.815e-04    2.685e-04  
   -0.83000     5.841e-04    2.640e-04  
   -0.84000     5.867e-04    2.597e-04  
   -0.85000     5.892e-04    2.555e-04  
   -0.86000     5.916e-04    2.515e-04  
   -0.87000     5.941e-04    2.475e-04  
   -0.88000     5.965e-04    2.437e-04  
   -0.89000     5.988e-04    2.400e-04  
   -0.90000     6.012e-04    2.364e-04  
   -0.91000     6.035e-04    2.329e-04  
   -0.92000     6.057e-04    2.295e-04  
   -0.93000     6.080e-04    2.262e-04  
   -0.94000     6.102e-04    2.229e-04  
   -0.95000     6.123e-04    2.198e-04  
   -0.96000     6.145e-04    2.167e-04  
   -0.97000     6.166e-04    2.137e-04  
   -0.98000     6.186e-04    2.109e-04  
   -0.99000     6.207e-04    2.080e-04  
   -1.00000     6.227e-04    2.053e-04  
y
-----------------------------------------------

          ***** job concluded
1****** HSPICE -- G-2012.06 32-BIT (May 27 2012) RHEL32 ******                  
 ******  
 *sample netlist for bsim-mg

  ******  job statistics summary tnom=  25.000 temp= 100.000 *****
  
  
 ******  Machine Information  ******
 CPU:
 model name	: Intel(R) Xeon(R) CPU           X7350  @ 2.93GHz
 cpu MHz	: 2925.869
  
 OS:
 Linux version 2.6.18-348.4.1.el5 (mockbuild@x86-007.build.bos.redhat.com) (gcc version 4.1.2 20080704 (Red Hat 4.1.2-54)) #1 SMP Fri Mar 22 05:41:51 EDT 2013


  ******  HSPICE Threads Information  ******

  Command Line Threads Count :     1
  Available CPU Count        :     8
  Actual Threads Count       :     1


  ******  Circuit Statistics  ******
  # nodes       =       6 # elements   =       4
  # resistors   =       0 # capacitors =       0 # inductors   =       0
  # mutual_inds =       0 # vccs       =       0 # vcvs        =       0
  # cccs        =       0 # ccvs       =       0 # volt_srcs   =       3
  # curr_srcs   =       0 # diodes     =       0 # bjts        =       0
  # jfets       =       0 # mosfets    =       0 # U elements  =       0
  # T elements  =       0 # W elements =       0 # B elements  =       0
  # S elements  =       0 # P elements =       0 # va device   =       1
  # vector_srcs =       0 # N elements =       0


  ******  Runtime Statistics (seconds)  ******

  analysis           time    # points   tot. iter  conv.iter
  op point           0.00           1           0
  dc sweep           0.16        1111        2233
  readin             0.01
  errchk             0.05
  setup              0.00
  output             0.00


           peak memory used        117.23 megabytes
           total cpu time            0.23 seconds
           total elapsed time        0.23 seconds
           job started at     15:14:05 07/12/2013
           job ended   at     15:14:20 07/12/2013


 lic: Release hspice token(s) 
 lic: total license checkout elapse time:        0.21(s)
