 ****** HSPICE -- G-2012.06 32-BIT (May 27 2012) RHEL32 ******                  
  Copyright (C) 2012 Synopsys, Inc. All Rights Reserved.                        
  Unpublished-rights reserved under US copyright laws.
  This program is protected by law and is subject to the
  terms and conditions of the license agreement from Synopsys.
  Use of this program is your acceptance to be bound by the
  license agreement. HSPICE is the trademark of Synopsys, Inc.
  Input File: ringosc_17stg.sp                                                  
  Command line options: -hdlpath ../code -i ringosc_17stg.sp -o ringosc_17stg
 lic:  
 lic: FLEXlm: v10.8 
 lic: USER:   navidp               HOSTNAME: intelr900-1.EECS.Berkeley.EDU 
 lic: HOSTID: 0022197fa591         PID:      25202 
 lic: Using FLEXlm license file: 
 lic: 1701@sunv40z-1.eecs.berkeley.edu 
 lic: Checkout 1 hspice 
 lic: License/Maintenance for hspice will expire on 19-dec-2013/2013.03 
 lic: 3(in_use)/50(total) FLOATING license(s) on SERVER sunv40z-1.eecs.berkeley.
 lic:   
 Init: read install configuration file: /tools/synopsys/hspice/G-2012.06/hspice/meta.cfg
 **info** *pvaI* Module (bsimcmg): 4 unexpanded port, 0 init, 2075 behav, 47 contrib, 63/3242 expr(s)

 **info** *pvaI* Resizing DB size for v count = 1

 **info** *pvaI* Resizing DB size for v count = 2

 **info** *pvaI*        Has DIS (ST SB), 4 afCount

 **info** *pvaI*        0 const-G and 0 const-C, Has switch branch.

 **info** *pvaI* Module (bsimcmg): generated 0 flow node(s) during compilation.

 **info** *pvaI* #### Total 697 line-size(s), 63 expr(s), 47 contr(s), 0 init(s), 2075 behav(s), 4 port(s)

  **warning** (ringosc_17stg.sp:15) Global net name, "gnd", in subckt pin list. The pin will be connected to the local net. Recommend to not use global net names in subckt pin lists.
 Loading pVA library ringosc_17stg.pvadir/pvaRTL_linux.so...
1****** HSPICE -- G-2012.06 32-BIT (May 27 2012) RHEL32 ******                  
 ******  
 *sample netlist for bsim-mg

  ******  circuit name directory
 circuit number to circuit name directory
   number circuitname                     definition         multiplier
        0 main circuit
        1 xinv1.                          mg_inv             1.00 
        2 xinv2.                          mg_inv             1.00 
        3 xinv3.                          mg_inv             1.00 
        4 xinv4.                          mg_inv             1.00 
        5 xinv5.                          mg_inv             1.00 
        6 xinv6.                          mg_inv             1.00 
        7 xinv7.                          mg_inv             1.00 
        8 xinv8.                          mg_inv             1.00 
        9 xinv9.                          mg_inv             1.00 
       10 xinv10.                         mg_inv             1.00 
       11 xinv11.                         mg_inv             1.00 
       12 xinv12.                         mg_inv             1.00 
       13 xinv13.                         mg_inv             1.00 
       14 xinv14.                         mg_inv             1.00 
       15 xinv15.                         mg_inv             1.00 
       16 xinv16.                         mg_inv             1.00 
       17 xinv17.                         mg_inv             1.00 
       18 xinv1.xp1.                      bsimcmg(va)        1.00 
       19 xinv1.xn1.                      bsimcmg(va)        1.00 
       20 xinv2.xp1.                      bsimcmg(va)        1.00 
       21 xinv2.xn1.                      bsimcmg(va)        1.00 
       22 xinv3.xp1.                      bsimcmg(va)        1.00 
       23 xinv3.xn1.                      bsimcmg(va)        1.00 
       24 xinv4.xp1.                      bsimcmg(va)        1.00 
       25 xinv4.xn1.                      bsimcmg(va)        1.00 
       26 xinv5.xp1.                      bsimcmg(va)        1.00 
       27 xinv5.xn1.                      bsimcmg(va)        1.00 
       28 xinv6.xp1.                      bsimcmg(va)        1.00 
       29 xinv6.xn1.                      bsimcmg(va)        1.00 
       30 xinv7.xp1.                      bsimcmg(va)        1.00 
       31 xinv7.xn1.                      bsimcmg(va)        1.00 
       32 xinv8.xp1.                      bsimcmg(va)        1.00 
       33 xinv8.xn1.                      bsimcmg(va)        1.00 
       34 xinv9.xp1.                      bsimcmg(va)        1.00 
       35 xinv9.xn1.                      bsimcmg(va)        1.00 
       36 xinv10.xp1.                     bsimcmg(va)        1.00 
       37 xinv10.xn1.                     bsimcmg(va)        1.00 
       38 xinv11.xp1.                     bsimcmg(va)        1.00 
       39 xinv11.xn1.                     bsimcmg(va)        1.00 
       40 xinv12.xp1.                     bsimcmg(va)        1.00 
       41 xinv12.xn1.                     bsimcmg(va)        1.00 
       42 xinv13.xp1.                     bsimcmg(va)        1.00 
       43 xinv13.xn1.                     bsimcmg(va)        1.00 
       44 xinv14.xp1.                     bsimcmg(va)        1.00 
       45 xinv14.xn1.                     bsimcmg(va)        1.00 
       46 xinv15.xp1.                     bsimcmg(va)        1.00 
       47 xinv15.xn1.                     bsimcmg(va)        1.00 
       48 xinv16.xp1.                     bsimcmg(va)        1.00 
       49 xinv16.xn1.                     bsimcmg(va)        1.00 
       50 xinv17.xp1.                     bsimcmg(va)        1.00 
       51 xinv17.xn1.                     bsimcmg(va)        1.00 
 **info** *pvaI* Creating Verilog-A module 'bsimcmg' for XINV17.XN1

 **info** *pvaI* Creating Verilog-A module 'bsimcmg' for XINV17.XP1

  
      
 *****************************************************************
 ******  option summary
 ******
 runlvl  = 3         bypass  = 2         
  Opening plot unit= 15
 file=ringosc_17stg.pa0                                                        

1****** HSPICE -- G-2012.06 32-BIT (May 27 2012) RHEL32 ******                  
 ******  
 *sample netlist for bsim-mg

  ******  operating point information tnom=  25.000 temp=  25.000 *****
 ***** operating point status is voltage   simulation time is     0.     
     node    =voltage       node    =voltage       node    =voltage

 + 0:1       =   1.0000   0:2       = 2.874e-08  0:3       =   1.0000 
 + 0:4       = 2.875e-08  0:5       =   1.0000   0:6       = 2.875e-08
 + 0:7       =   1.0000   0:8       = 2.875e-08  0:9       =   1.0000 
 + 0:10      = 2.875e-08  0:11      =   1.0000   0:12      = 2.875e-08
 + 0:13      =   1.0000   0:14      = 2.875e-08  0:15      =   1.0000 
 + 0:16      = 2.875e-08  0:17      =   1.0000   0:supply  =   1.0000 

 ******  
 *sample netlist for bsim-mg

  ******  transient analysis tnom=  25.000 temp=  25.000 *****
x

        time    voltage    
                     1     
    0.            1.0000   
  1.0000e-12      0.4574   
  2.0000e-12      0.1628   
  3.0000e-12    6.830e-02  
  4.0000e-12    4.286e-02  
  5.0000e-12    3.603e-02  
  6.0000e-12    2.812e-02  
  7.0000e-12    1.542e-02  
  8.0000e-12    1.081e-02  
  9.0000e-12    9.806e-03  
  1.0000e-11    5.099e-03  
  1.1000e-11    2.426e-03  
  1.2000e-11    1.159e-03  
  1.3000e-11    1.502e-04  
  1.4000e-11    6.962e-04  
  1.5000e-11    6.765e-05  
  1.6000e-11    5.314e-05  
  1.7000e-11    1.223e-04  
  1.8000e-11    9.780e-05  
  1.9000e-11    9.184e-05  
  2.0000e-11   -3.117e-05  
  2.1000e-11    4.284e-05  
  2.2000e-11    2.252e-05  
  2.3000e-11   -1.551e-05  
  2.4000e-11    5.671e-06  
  2.5000e-11   -2.175e-06  
  2.6000e-11    1.049e-05  
  2.7000e-11    7.307e-06  
  2.8000e-11   -1.412e-05  
  2.9000e-11   -3.476e-05  
  3.0000e-11   -2.937e-05  
  3.1000e-11    4.414e-05  
  3.2000e-11    2.404e-04  
  3.3000e-11    2.775e-04  
  3.4000e-11   -4.743e-04  
  3.5000e-11   -1.412e-03  
  3.6000e-11   -1.535e-03  
  3.7000e-11    2.818e-03  
  3.8000e-11    8.590e-03  
  3.9000e-11    6.121e-03  
  4.0000e-11   -1.740e-02  
  4.1000e-11   -6.452e-02  
  4.2000e-11   -5.130e-02  
  4.3000e-11    7.847e-02  
  4.4000e-11      0.3309   
  4.5000e-11      0.5740   
  4.6000e-11      0.7655   
  4.7000e-11      0.8583   
  4.8000e-11      0.9056   
  4.9000e-11      0.9467   
  5.0000e-11      0.9750   
  5.1000e-11      0.9891   
  5.2000e-11      0.9933   
  5.3000e-11      0.9949   
  5.4000e-11      0.9976   
  5.5000e-11      0.9983   
  5.6000e-11      0.9986   
  5.7000e-11      0.9989   
  5.8000e-11      0.9993   
  5.9000e-11      0.9997   
  6.0000e-11      0.9998   
  6.1000e-11      0.9998   
  6.2000e-11      1.0000   
  6.3000e-11      1.0000   
  6.4000e-11      1.0000   
  6.5000e-11      1.0000   
  6.6000e-11      1.0000   
  6.7000e-11      1.0000   
  6.8000e-11      1.0000   
  6.9000e-11      1.0000   
  7.0000e-11      1.0000   
  7.1000e-11      1.0000   
  7.2000e-11      1.0000   
  7.3000e-11      1.0000   
  7.4000e-11      0.9999   
  7.5000e-11      0.9998   
  7.6000e-11      0.9997   
  7.7000e-11      1.0001   
  7.8000e-11      1.0013   
  7.9000e-11      1.0024   
  8.0000e-11      0.9983   
  8.1000e-11      0.9913   
  8.2000e-11      0.9847   
  8.3000e-11      1.0022   
  8.4000e-11      1.0545   
  8.5000e-11      1.0748   
  8.6000e-11      0.9454   
  8.7000e-11      0.6431   
  8.8000e-11      0.3125   
  8.9000e-11      0.1203   
  9.0000e-11    6.031e-02  
  9.1000e-11    4.116e-02  
  9.2000e-11    3.434e-02  
  9.3000e-11    2.381e-02  
  9.4000e-11    1.290e-02  
  9.5000e-11    1.123e-02  
  9.6000e-11    7.976e-03  
  9.7000e-11    4.216e-03  
  9.8000e-11    1.559e-03  
  9.9000e-11    9.125e-04  
  1.0000e-10    7.210e-04  
  1.0100e-10    3.067e-04  
  1.0200e-10    4.742e-05  
  1.0300e-10    1.343e-04  
  1.0400e-10    1.316e-04  
  1.0500e-10    9.178e-05  
  1.0600e-10    3.189e-05  
  1.0700e-10    2.687e-05  
  1.0800e-10    1.825e-05  
  1.0900e-10    9.657e-06  
  1.1000e-10    2.469e-06  
  1.1100e-10   -4.400e-06  
  1.1200e-10    7.089e-06  
  1.1300e-10    8.627e-06  
  1.1400e-10    3.632e-06  
  1.1500e-10   -3.721e-05  
  1.1600e-10   -3.698e-05  
  1.1700e-10   -5.662e-06  
  1.1800e-10    1.137e-04  
  1.1900e-10    3.055e-04  
  1.2000e-10    2.161e-05  
  1.2100e-10   -8.843e-04  
  1.2200e-10   -1.729e-03  
  1.2300e-10   -6.707e-04  
  1.2400e-10    6.182e-03  
  1.2500e-10    1.041e-02  
  1.2600e-10   -2.845e-03  
  1.2700e-10   -3.827e-02  
  1.2800e-10   -7.038e-02  
  1.2900e-10   -1.635e-02  
  1.3000e-10      0.1971   
  1.3100e-10      0.4520   
  1.3200e-10      0.6685   
  1.3300e-10      0.8203   
  1.3400e-10      0.8871   
  1.3500e-10      0.9249   
  1.3600e-10      0.9629   
  1.3700e-10      0.9833   
  1.3800e-10      0.9920   
  1.3900e-10      0.9946   
  1.4000e-10      0.9955   
  1.4100e-10      0.9984   
  1.4200e-10      0.9986   
  1.4300e-10      0.9988   
  1.4400e-10      0.9991   
  1.4500e-10      0.9996   
  1.4600e-10      0.9999   
  1.4700e-10      0.9998   
  1.4800e-10      0.9999   
  1.4900e-10      1.0000   
  1.5000e-10      1.0000   
  1.5100e-10      1.0000   
  1.5200e-10      1.0000   
  1.5300e-10      1.0000   
  1.5400e-10      1.0000   
  1.5500e-10      1.0000   
  1.5600e-10      1.0000   
  1.5700e-10      1.0000   
  1.5800e-10      1.0000   
  1.5900e-10      1.0000   
  1.6000e-10      1.0000   
  1.6100e-10      0.9999   
  1.6200e-10      0.9997   
  1.6300e-10      0.9997   
  1.6400e-10      1.0004   
  1.6500e-10      1.0020   
  1.6600e-10      1.0015   
  1.6700e-10      0.9957   
  1.6800e-10      0.9875   
  1.6900e-10      0.9892   
  1.7000e-10      1.0239   
  1.7100e-10      1.0777   
  1.7200e-10      1.0245   
  1.7300e-10      0.8263   
  1.7400e-10      0.5005   
  1.7500e-10      0.2230   
  1.7600e-10    8.452e-02  
  1.7700e-10    5.047e-02  
  1.7800e-10    3.821e-02  
  1.7900e-10    3.164e-02  
  1.8000e-10    1.736e-02  
  1.8100e-10    1.099e-02  
  1.8200e-10    1.070e-02  
  1.8300e-10    5.919e-03  
  1.8400e-10    2.944e-03  
  1.8500e-10    1.092e-03  
  1.8600e-10    8.047e-04  
  1.8700e-10    5.346e-04  
  1.8800e-10    1.492e-04  
  1.8900e-10    1.161e-04  
  1.9000e-10    1.150e-04  
  1.9100e-10    1.381e-04  
  1.9200e-10    7.380e-05  
  1.9300e-10    1.542e-06  
  1.9400e-10    2.266e-05  
  1.9500e-10    1.703e-05  
  1.9600e-10    5.155e-06  
  1.9700e-10   -9.226e-07  
  1.9800e-10    1.580e-06  
  1.9900e-10    7.729e-06  
  2.0000e-10    6.487e-06  
  2.0100e-10   -2.166e-06  
  2.0200e-10   -4.730e-05  
  2.0300e-10   -1.372e-05  
  2.0400e-10    1.491e-05  
  2.0500e-10    1.917e-04  
  2.0600e-10    2.806e-04  
  2.0700e-10   -3.371e-04  
  2.0800e-10   -1.312e-03  
  2.0900e-10   -1.461e-03  
  2.1000e-10    8.067e-04  
  2.1100e-10    9.043e-03  
  2.1200e-10    9.447e-03  
  2.1300e-10   -1.080e-02  
  2.1400e-10   -5.820e-02  
  2.1500e-10   -8.034e-02  
  2.1600e-10    3.756e-02  
  2.1700e-10      0.3090   
  2.1800e-10      0.5395   
  2.1900e-10      0.7386   
  2.2000e-10      0.8502   
  2.2100e-10      0.8993   
  2.2200e-10      0.9424   
  2.2300e-10      0.9720   
  2.2400e-10      0.9883   
  2.2500e-10      0.9930   
  2.2600e-10      0.9947   
  2.2700e-10      0.9974   
  2.2800e-10      0.9984   
  2.2900e-10      0.9985   
  2.3000e-10      0.9988   
  2.3100e-10      0.9992   
  2.3200e-10      0.9998   
  2.3300e-10      0.9999   
  2.3400e-10      0.9998   
  2.3500e-10      1.0000   
  2.3600e-10      1.0000   
  2.3700e-10      1.0000   
  2.3800e-10      1.0000   
  2.3900e-10      1.0000   
  2.4000e-10      1.0000   
  2.4100e-10      1.0000   
  2.4200e-10      1.0000   
  2.4300e-10      1.0000   
  2.4400e-10      1.0000   
  2.4500e-10      1.0000   
  2.4600e-10      1.0000   
  2.4700e-10      1.0000   
  2.4800e-10      0.9997   
  2.4900e-10      0.9997   
  2.5000e-10      0.9998   
  2.5100e-10      1.0010   
  2.5200e-10      1.0023   
  2.5300e-10      0.9996   
  2.5400e-10      0.9928   
  2.5500e-10      0.9854   
  2.5600e-10      0.9969   
  2.5700e-10      1.0467   
  2.5800e-10      1.0743   
  2.5900e-10      0.9837   
  2.6000e-10      0.6995   
  2.6100e-10      0.4060   
  2.6200e-10      0.1530   
  2.6300e-10    6.540e-02  
  2.6400e-10    4.360e-02  
  2.6500e-10    3.574e-02  
  2.6600e-10    2.543e-02  
  2.6700e-10    1.422e-02  
  2.6800e-10    1.240e-02  
  2.6900e-10    8.753e-03  
  2.7000e-10    4.897e-03  
  2.7100e-10    1.915e-03  
  2.7200e-10    7.823e-04  
  2.7300e-10    7.613e-04  
  2.7400e-10    3.217e-04  
  2.7500e-10    1.576e-04  
  2.7600e-10    1.079e-04  
  2.7700e-10    9.837e-05  
  2.7800e-10    1.350e-04  
  2.7900e-10    3.476e-05  
  2.8000e-10   -6.643e-07  
  2.8100e-10    4.190e-05  
  2.8200e-10    1.234e-05  
  2.8300e-10      0.       
  2.8400e-10   -1.152e-06  
  2.8500e-10    6.802e-06  
  2.8600e-10    5.763e-06  
  2.8700e-10    6.308e-06  
  2.8800e-10   -2.088e-05  
  2.8900e-10   -3.641e-05  
  2.9000e-10   -2.303e-05  
  2.9100e-10    9.944e-05  
  2.9200e-10    3.138e-04  
  2.9300e-10    1.491e-04  
  2.9400e-10   -7.598e-04  
  2.9500e-10   -1.689e-03  
  2.9600e-10   -8.441e-04  
  2.9700e-10    4.286e-03  
  2.9800e-10    1.121e-02  
  2.9900e-10    2.801e-03  
  3.0000e-10   -2.856e-02  
  3.0100e-10   -7.560e-02  
  3.0200e-10   -4.692e-02  
  3.0300e-10      0.1352   
  3.0400e-10      0.4030   
  3.0500e-10      0.6268   
  3.0600e-10      0.7873   
  3.0700e-10      0.8745   
  3.0800e-10      0.9155   
  3.0900e-10      0.9557   
  3.1000e-10      0.9800   
  3.1100e-10      0.9906   
  3.1200e-10      0.9939   
  3.1300e-10      0.9955   
  3.1400e-10      0.9980   
  3.1500e-10      0.9985   
  3.1600e-10      0.9986   
  3.1700e-10      0.9990   
  3.1800e-10      0.9995   
  3.1900e-10      0.9998   
  3.2000e-10      0.9998   
  3.2100e-10      0.9999   
  3.2200e-10      1.0000   
  3.2300e-10      1.0000   
  3.2400e-10      1.0000   
  3.2500e-10      1.0000   
  3.2600e-10      1.0000   
  3.2700e-10      1.0000   
  3.2800e-10      1.0000   
  3.2900e-10      1.0000   
  3.3000e-10      1.0000   
  3.3100e-10      1.0000   
  3.3200e-10      1.0000   
  3.3300e-10      1.0000   
  3.3400e-10      0.9999   
  3.3500e-10      0.9997   
  3.3600e-10      0.9997   
  3.3700e-10      1.0003   
  3.3800e-10      1.0017   
  3.3900e-10      1.0019   
  3.4000e-10      0.9973   
  3.4100e-10      0.9887   
  3.4200e-10      0.9865   
  3.4300e-10      1.0204   
  3.4400e-10      1.0702   
  3.4500e-10      1.0670   
  3.4600e-10      0.8897   
  3.4700e-10      0.5473   
  3.4800e-10      0.3096   
  3.4900e-10      0.1082   
  3.5000e-10    5.485e-02  
  3.5100e-10    3.815e-02  
  3.5200e-10    3.269e-02  
  3.5300e-10    2.208e-02  
  3.5400e-10    1.133e-02  
  3.5500e-10    9.915e-03  
  3.5600e-10    6.552e-03  
  3.5700e-10    3.642e-03  
  3.5800e-10    1.759e-03  
  3.5900e-10    1.632e-04  
  3.6000e-10    8.643e-04  
  3.6100e-10    2.701e-04  
  3.6200e-10    4.439e-05  
  3.6300e-10    1.024e-04  
  3.6400e-10    9.532e-05  
  3.6500e-10    1.043e-04  
  3.6600e-10    2.603e-05  
  3.6700e-10    1.900e-05  
  3.6800e-10    1.557e-05  
  3.6900e-10    7.148e-06  
  3.7000e-10    1.125e-06  
  3.7100e-10   -4.603e-06  
  3.7200e-10    9.221e-06  
  3.7300e-10    8.402e-06  
  3.7400e-10    2.591e-06  
  3.7500e-10   -3.807e-05  
  3.7600e-10   -2.581e-05  
  3.7700e-10    5.202e-06  
  3.7800e-10    1.499e-04  
  3.7900e-10    3.174e-04  
  3.8000e-10   -1.467e-04  
  3.8100e-10   -1.020e-03  
  3.8200e-10   -1.802e-03  
  3.8300e-10    2.084e-04  
  3.8400e-10    6.755e-03  
  3.8500e-10    9.105e-03  
  3.8600e-10   -5.860e-03  
  3.8700e-10   -4.464e-02  
  3.8800e-10   -6.355e-02  
  3.8900e-10   -6.100e-03  
  3.9000e-10      0.2337   
  3.9100e-10      0.4944   
  3.9200e-10      0.7022   
  3.9300e-10      0.8307   
  3.9400e-10      0.8895   
  3.9500e-10      0.9322   
  3.9600e-10      0.9639   
  3.9700e-10      0.9856   
  3.9800e-10      0.9927   
  3.9900e-10      0.9944   
  4.0000e-10      0.9968   
  4.0100e-10      0.9984   
  4.0200e-10      0.9984   
  4.0300e-10      0.9988   
  4.0400e-10      0.9991   
  4.0500e-10      0.9996   
  4.0600e-10      0.9999   
  4.0700e-10      0.9998   
  4.0800e-10      0.9999   
  4.0900e-10      1.0000   
  4.1000e-10      1.0000   
  4.1100e-10      1.0000   
  4.1200e-10      1.0000   
  4.1300e-10      1.0000   
  4.1400e-10      1.0000   
  4.1500e-10      1.0000   
  4.1600e-10      1.0000   
  4.1700e-10      1.0000   
  4.1800e-10      1.0000   
  4.1900e-10      1.0000   
  4.2000e-10      1.0000   
  4.2100e-10      0.9998   
  4.2200e-10      0.9997   
  4.2300e-10      0.9998   
  4.2400e-10      1.0008   
  4.2500e-10      1.0021   
  4.2600e-10      1.0004   
  4.2700e-10      0.9946   
  4.2800e-10      0.9861   
  4.2900e-10      0.9921   
  4.3000e-10      1.0346   
  4.3100e-10      1.0709   
  4.3200e-10      1.0138   
  4.3300e-10      0.7706   
  4.3400e-10      0.4574   
  4.3500e-10      0.2065   
  4.3600e-10    7.713e-02  
  4.3700e-10    4.817e-02  
  4.3800e-10    3.611e-02  
  4.3900e-10    2.910e-02  
  4.4000e-10    1.643e-02  
  4.4100e-10    1.108e-02  
  4.4200e-10    1.015e-02  
  4.4300e-10    5.220e-03  
  4.4400e-10    2.516e-03  
  4.4500e-10    1.231e-03  
  4.4600e-10    7.852e-05  
  4.4700e-10    6.612e-04  
  4.4800e-10    1.736e-04  
  4.4900e-10    8.384e-05  
  4.5000e-10    1.188e-04  
  4.5100e-10    1.141e-04  
  4.5200e-10    5.668e-05  
  4.5300e-10    1.565e-06  
  4.5400e-10    3.745e-05  
  4.5500e-10    3.554e-06  
  4.5600e-10    4.072e-06  
  4.5700e-10   -5.205e-06  
  4.5800e-10    6.221e-06  
  4.5900e-10    3.786e-06  
  4.6000e-10    8.480e-06  
  4.6100e-10   -1.348e-06  
  4.6200e-10   -5.015e-05  
  4.6300e-10   -2.429e-05  
  4.6400e-10    3.859e-05  
  4.6500e-10    2.487e-04  
  4.6600e-10    2.450e-04  
  4.6700e-10   -4.721e-04  
  4.6800e-10   -1.408e-03  
  4.6900e-10   -1.321e-03  
  4.7000e-10    1.983e-03  
  4.7100e-10    9.135e-03  
  4.7200e-10    7.438e-03  
  4.7300e-10   -1.498e-02  
  4.7400e-10   -6.232e-02  
  4.7500e-10   -8.293e-02  
  4.7600e-10    7.062e-02  
  4.7700e-10      0.3350   
  4.7800e-10      0.5751   
  4.7900e-10      0.7663   
  4.8000e-10      0.8641   
  4.8100e-10      0.9051   
  4.8200e-10      0.9473   
  4.8300e-10      0.9743   
  4.8400e-10      0.9884   
  4.8500e-10      0.9932   
  4.8600e-10      0.9949   
  4.8700e-10      0.9974   
  4.8800e-10      0.9986   
  4.8900e-10      0.9985   
  4.9000e-10      0.9989   
  4.9100e-10      0.9994   
  4.9200e-10      0.9998   
  4.9300e-10      0.9998   
  4.9400e-10      0.9999   
  4.9500e-10      0.9999   
  4.9600e-10      1.0000   
  4.9700e-10      1.0000   
  4.9800e-10      1.0000   
  4.9900e-10      1.0000   
  5.0000e-10      1.0000   
  5.0100e-10      1.0000   
  5.0200e-10      1.0000   
  5.0300e-10      1.0000   
  5.0400e-10      1.0000   
  5.0500e-10      1.0000   
  5.0600e-10      1.0000   
  5.0700e-10      0.9999   
  5.0800e-10      0.9997   
  5.0900e-10      0.9997   
  5.1000e-10      1.0001   
  5.1100e-10      1.0013   
  5.1200e-10      1.0023   
  5.1300e-10      0.9990   
  5.1400e-10      0.9911   
  5.1500e-10      0.9850   
  5.1600e-10      1.0045   
  5.1700e-10      1.0574   
  5.1800e-10      1.0626   
  5.1900e-10      0.9425   
  5.2000e-10      0.6366   
  5.2100e-10      0.3282   
  5.2200e-10      0.1223   
  5.2300e-10    5.959e-02  
  5.2400e-10    3.830e-02  
  5.2500e-10    3.624e-02  
  5.2600e-10    2.209e-02  
  5.2700e-10    1.315e-02  
  5.2800e-10    1.217e-02  
  5.2900e-10    7.559e-03  
  5.3000e-10    4.105e-03  
  5.3100e-10    1.374e-03  
  5.3200e-10    7.380e-04  
  5.3300e-10    8.669e-04  
  5.3400e-10    2.744e-04  
  5.3500e-10    6.013e-05  
  5.3600e-10    1.126e-04  
  5.3700e-10    9.947e-05  
  5.3800e-10    1.395e-04  
  5.3900e-10    1.818e-05  
  5.4000e-10    9.574e-06  
  5.4100e-10    2.167e-05  
  5.4200e-10    1.226e-05  
  5.4300e-10   -1.765e-06  
  5.4400e-10   -6.546e-07  
  5.4500e-10    6.544e-06  
  5.4600e-10    6.236e-06  
  5.4700e-10    4.529e-06  
  5.4800e-10   -2.245e-05  
  5.4900e-10   -4.853e-05  
  5.5000e-10    2.614e-06  
  5.5100e-10    8.953e-05  
  5.5200e-10    2.217e-04  
  5.5300e-10    1.580e-04  
  5.5400e-10   -9.444e-04  
  5.5500e-10   -1.763e-03  
  5.5600e-10   -7.388e-04  
  5.5700e-10    5.378e-03  
  5.5800e-10    1.057e-02  
  5.5900e-10   -2.639e-03  
  5.6000e-10   -3.413e-02  
  5.6100e-10   -6.833e-02  
  5.6200e-10   -4.338e-02  
  5.6300e-10      0.1823   
  5.6400e-10      0.4497   
  5.6500e-10      0.6557   
  5.6600e-10      0.8119   
  5.6700e-10      0.8872   
  5.6800e-10      0.9216   
  5.6900e-10      0.9614   
  5.7000e-10      0.9823   
  5.7100e-10      0.9924   
  5.7200e-10      0.9941   
  5.7300e-10      0.9963   
  5.7400e-10      0.9980   
  5.7500e-10      0.9986   
  5.7600e-10      0.9986   
  5.7700e-10      0.9990   
  5.7800e-10      0.9995   
  5.7900e-10      0.9999   
  5.8000e-10      0.9998   
  5.8100e-10      0.9999   
  5.8200e-10      1.0000   
  5.8300e-10      1.0000   
  5.8400e-10      1.0000   
  5.8500e-10      1.0000   
  5.8600e-10      1.0000   
  5.8700e-10      1.0000   
  5.8800e-10      1.0000   
  5.8900e-10      1.0000   
  5.9000e-10      1.0000   
  5.9100e-10      1.0000   
  5.9200e-10      1.0000   
  5.9300e-10      1.0000   
  5.9400e-10      0.9999   
  5.9500e-10      0.9997   
  5.9600e-10      0.9998   
  5.9700e-10      1.0004   
  5.9800e-10      1.0022   
  5.9900e-10      1.0016   
  6.0000e-10      0.9959   
  6.0100e-10      0.9871   
  6.0200e-10      0.9868   
  6.0300e-10      1.0239   
  6.0400e-10      1.0776   
  6.0500e-10      1.0266   
  6.0600e-10      0.8427   
  6.0700e-10      0.4784   
  6.0800e-10      0.1979   
  6.0900e-10    7.441e-02  
  6.1000e-10    4.848e-02  
  6.1100e-10    3.848e-02  
  6.1200e-10    2.991e-02  
  6.1300e-10    1.829e-02  
  6.1400e-10    1.239e-02  
  6.1500e-10    9.638e-03  
  6.1600e-10    6.071e-03  
  6.1700e-10    3.123e-03  
  6.1800e-10    6.527e-04  
  6.1900e-10    7.800e-04  
  6.2000e-10    7.240e-04  
  6.2100e-10    3.245e-05  
  6.2200e-10    1.314e-04  
  6.2300e-10    1.241e-04  
  6.2400e-10    7.788e-05  
  6.2500e-10    1.445e-04  
  6.2600e-10    1.298e-05  
  6.2700e-10   -6.447e-06  
  6.2800e-10    3.324e-05  
  6.2900e-10   -6.387e-06  
  6.3000e-10    2.257e-06  
  6.3100e-10   -1.601e-06  
  6.3200e-10    5.757e-06  
  6.3300e-10    1.091e-05  
  6.3400e-10   -2.607e-06  
  6.3500e-10   -4.040e-05  
  6.3600e-10   -3.106e-05  
  6.3700e-10    3.112e-05  
  6.3800e-10    2.118e-04  
  6.3900e-10    3.474e-04  
  6.4000e-10   -3.515e-04  
  6.4100e-10   -1.260e-03  
  6.4200e-10   -1.890e-03  
  6.4300e-10    1.180e-03  
  6.4400e-10    7.997e-03  
  6.4500e-10    9.401e-03  
  6.4600e-10   -1.023e-02  
  6.4700e-10   -5.659e-02  
  6.4800e-10   -6.909e-02  
  6.4900e-10    3.575e-02  
  6.5000e-10      0.2869   
  6.5100e-10      0.5261   
  6.5200e-10      0.7310   
  6.5300e-10      0.8437   
  6.5400e-10      0.8986   
  6.5500e-10      0.9383   
  6.5600e-10      0.9715   
  6.5700e-10      0.9871   
  6.5800e-10      0.9936   
  6.5900e-10      0.9943   
  6.6000e-10      0.9971   
  6.6100e-10      0.9983   
  6.6200e-10      0.9986   
  6.6300e-10      0.9988   
  6.6400e-10      0.9992   
  6.6500e-10      0.9997   
  6.6600e-10      0.9998   
  6.6700e-10      0.9998   
  6.6800e-10      0.9999   
  6.6900e-10      1.0000   
  6.7000e-10      1.0000   
  6.7100e-10      1.0000   
  6.7200e-10      1.0000   
  6.7300e-10      1.0000   
  6.7400e-10      1.0000   
  6.7500e-10      1.0000   
  6.7600e-10      1.0000   
  6.7700e-10      1.0000   
  6.7800e-10      1.0000   
  6.7900e-10      1.0000   
  6.8000e-10      1.0000   
  6.8100e-10      0.9998   
  6.8200e-10      0.9997   
  6.8300e-10      0.9999   
  6.8400e-10      1.0010   
  6.8500e-10      1.0021   
  6.8600e-10      1.0000   
  6.8700e-10      0.9927   
  6.8800e-10      0.9873   
  6.8900e-10      0.9977   
  6.9000e-10      1.0411   
  6.9100e-10      1.0669   
  6.9200e-10      1.0143   
  6.9300e-10      0.7222   
  6.9400e-10      0.3750   
  6.9500e-10      0.1581   
  6.9600e-10    6.737e-02  
  6.9700e-10    4.314e-02  
  6.9800e-10    3.739e-02  
  6.9900e-10    2.602e-02  
  7.0000e-10    1.452e-02  
  7.0100e-10    1.188e-02  
  7.0200e-10    8.813e-03  
  7.0300e-10    4.849e-03  
  7.0400e-10    2.110e-03  
  7.0500e-10    9.150e-04  
  7.0600e-10    7.372e-04  
  7.0700e-10    4.100e-04  
  7.0800e-10    8.062e-05  
  7.0900e-10    1.412e-04  
  7.1000e-10    7.933e-05  
  7.1100e-10    1.589e-04  
  7.1200e-10    3.095e-05  
  7.1300e-10    6.171e-06  
  7.1400e-10    2.985e-05  
  7.1500e-10    1.374e-05  
  7.1600e-10      0.       
  7.1700e-10   -9.021e-07  
  7.1800e-10      0.       
  7.1900e-10    1.100e-05  
  7.2000e-10    5.577e-06  
  7.2100e-10   -9.867e-06  
  7.2200e-10   -5.501e-05  
  7.2300e-10   -1.881e-05  
  7.2400e-10    8.612e-05  
  7.2500e-10    2.925e-04  
  7.2600e-10    1.642e-04  
  7.2700e-10   -7.033e-04  
  7.2800e-10   -1.515e-03  
  7.2900e-10   -1.258e-03  
  7.3000e-10    2.768e-03  
  7.3100e-10    1.037e-02  
  7.3200e-10    6.047e-03  
  7.3300e-10   -2.418e-02  
  7.3400e-10   -7.074e-02  
  7.3500e-10   -6.352e-02  
  7.3600e-10      0.1046   
  7.3700e-10      0.3854   
  7.3800e-10      0.6059   
  7.3900e-10      0.7775   
  7.4000e-10      0.8691   
  7.4100e-10      0.9128   
  7.4200e-10      0.9504   
  7.4300e-10      0.9801   
  7.4400e-10      0.9910   
  7.4500e-10      0.9940   
  7.4600e-10      0.9952   
  7.4700e-10      0.9983   
  7.4800e-10      0.9984   
  7.4900e-10      0.9986   
  7.5000e-10      0.9990   
  7.5100e-10      0.9995   
  7.5200e-10      0.9998   
  7.5300e-10      0.9998   
  7.5400e-10      0.9999   
  7.5500e-10      0.9999   
  7.5600e-10      1.0000   
  7.5700e-10      1.0000   
  7.5800e-10      1.0000   
  7.5900e-10      1.0000   
  7.6000e-10      1.0000   
  7.6100e-10      1.0000   
  7.6200e-10      1.0000   
  7.6300e-10      1.0000   
  7.6400e-10      1.0000   
  7.6500e-10      1.0000   
  7.6600e-10      1.0000   
  7.6700e-10      0.9999   
  7.6800e-10      0.9997   
  7.6900e-10      0.9997   
  7.7000e-10      1.0002   
  7.7100e-10      1.0017   
  7.7200e-10      1.0019   
  7.7300e-10      0.9972   
  7.7400e-10      0.9897   
  7.7500e-10      0.9860   
  7.7600e-10      1.0116   
  7.7700e-10      1.0707   
  7.7800e-10      1.0534   
  7.7900e-10      0.8933   
  7.8000e-10      0.5663   
  7.8100e-10      0.2825   
  7.8200e-10      0.1017   
  7.8300e-10    5.520e-02  
  7.8400e-10    3.928e-02  
  7.8500e-10    3.442e-02  
  7.8600e-10    2.020e-02  
  7.8700e-10    1.154e-02  
  7.8800e-10    1.110e-02  
  7.8900e-10    6.857e-03  
  7.9000e-10    3.537e-03  
  7.9100e-10    1.235e-03  
  7.9200e-10    8.112e-04  
  7.9300e-10    6.396e-04  
  7.9400e-10    1.791e-04  
  7.9500e-10    1.143e-04  
  7.9600e-10    1.117e-04  
  7.9700e-10    1.362e-04  
  7.9800e-10    1.012e-04  
  7.9900e-10   -8.950e-06  
  8.0000e-10    3.474e-05  
  8.0100e-10    2.049e-05  
  8.0200e-10    6.107e-06  
  8.0300e-10   -1.360e-06  
  8.0400e-10      0.       
  8.0500e-10    8.096e-06  
  8.0600e-10    7.881e-06  
  8.0700e-10    3.274e-06  
  8.0800e-10   -4.090e-05  
  8.0900e-10   -3.190e-05  
  8.1000e-10    6.908e-06  
  8.1100e-10    1.564e-04  
  8.1200e-10    2.917e-04  
  8.1300e-10   -1.497e-04  
  8.1400e-10   -1.122e-03  
  8.1500e-10   -1.630e-03  
  8.1600e-10    5.183e-05  
  8.1700e-10    6.345e-03  
  8.1800e-10    9.690e-03  
  8.1900e-10   -2.893e-03  
  8.2000e-10   -4.460e-02  
  8.2100e-10   -7.655e-02  
  8.2200e-10   -3.745e-03  
  8.2300e-10      0.2374   
  8.2400e-10      0.4911   
  8.2500e-10      0.6948   
  8.2600e-10      0.8300   
  8.2700e-10      0.8954   
  8.2800e-10      0.9322   
  8.2900e-10      0.9665   
  8.3000e-10      0.9840   
  8.3100e-10      0.9926   
  8.3200e-10      0.9941   
  8.3300e-10      0.9963   
  8.3400e-10      0.9987   
  8.3500e-10      0.9983   
  8.3600e-10      0.9988   
  8.3700e-10      0.9992   
  8.3800e-10      0.9996   
  8.3900e-10      0.9998   
  8.4000e-10      0.9998   
  8.4100e-10      0.9999   
  8.4200e-10      1.0000   
  8.4300e-10      1.0000   
  8.4400e-10      1.0000   
  8.4500e-10      1.0000   
  8.4600e-10      1.0000   
  8.4700e-10      1.0000   
  8.4800e-10      1.0000   
  8.4900e-10      1.0000   
  8.5000e-10      1.0000   
  8.5100e-10      1.0000   
  8.5200e-10      1.0000   
  8.5300e-10      1.0000   
  8.5400e-10      0.9998   
  8.5500e-10      0.9997   
  8.5600e-10      0.9998   
  8.5700e-10      1.0008   
  8.5800e-10      1.0021   
  8.5900e-10      1.0004   
  8.6000e-10      0.9944   
  8.6100e-10      0.9875   
  8.6200e-10      0.9889   
  8.6300e-10      1.0345   
  8.6400e-10      1.0853   
  8.6500e-10      1.0398   
  8.6600e-10      0.7862   
  8.6700e-10      0.4260   
  8.6800e-10      0.1777   
  8.6900e-10    6.921e-02  
  8.7000e-10    4.622e-02  
  8.7100e-10    3.731e-02  
  8.7200e-10    2.778e-02  
  8.7300e-10    1.608e-02  
  8.7400e-10    1.211e-02  
  8.7500e-10    1.005e-02  
  8.7600e-10    5.211e-03  
  8.7700e-10    2.283e-03  
  8.7800e-10    9.566e-04  
  8.7900e-10    7.661e-04  
  8.8000e-10    4.123e-04  
  8.8100e-10    1.672e-04  
  8.8200e-10    1.168e-04  
  8.8300e-10    7.281e-05  
  8.8400e-10    1.703e-04  
  8.8500e-10    4.224e-05  
  8.8600e-10    3.132e-06  
  8.8700e-10    3.255e-05  
  8.8800e-10    1.426e-05  
  8.8900e-10    3.346e-06  
  8.9000e-10   -2.411e-06  
  8.9100e-10    4.523e-06  
  8.9200e-10    6.935e-06  
  8.9300e-10    6.048e-06  
  8.9400e-10   -1.259e-05  
  8.9500e-10   -3.686e-05  
  8.9600e-10   -2.831e-05  
  8.9700e-10    5.123e-05  
  8.9800e-10    2.769e-04  
  8.9900e-10    1.797e-04  
  9.0000e-10   -5.546e-04  
  9.0100e-10   -1.459e-03  
  9.0200e-10   -1.381e-03  
  9.0300e-10    2.238e-03  
  9.0400e-10    9.680e-03  
  9.0500e-10    6.286e-03  
  9.0600e-10   -1.961e-02  
  9.0700e-10   -6.830e-02  
  9.0800e-10   -5.108e-02  
  9.0900e-10    9.121e-02  
  9.1000e-10      0.3482   
  9.1100e-10      0.5850   
  9.1200e-10      0.7595   
  9.1300e-10      0.8601   
  9.1400e-10      0.9069   
  9.1500e-10      0.9493   
  9.1600e-10      0.9766   
  9.1700e-10      0.9893   
  9.1800e-10      0.9932   
  9.1900e-10      0.9951   
  9.2000e-10      0.9976   
  9.2100e-10      0.9984   
  9.2200e-10      0.9985   
  9.2300e-10      0.9989   
  9.2400e-10      0.9993   
  9.2500e-10      0.9998   
  9.2600e-10      0.9998   
  9.2700e-10      0.9999   
  9.2800e-10      0.9999   
  9.2900e-10      1.0000   
  9.3000e-10      1.0000   
  9.3100e-10      1.0000   
  9.3200e-10      1.0000   
  9.3300e-10      1.0000   
  9.3400e-10      1.0000   
  9.3500e-10      1.0000   
  9.3600e-10      1.0000   
  9.3700e-10      1.0000   
  9.3800e-10      1.0000   
  9.3900e-10      1.0000   
  9.4000e-10      1.0000   
  9.4100e-10      0.9998   
  9.4200e-10      0.9996   
  9.4300e-10      1.0000   
  9.4400e-10      1.0014   
  9.4500e-10      1.0020   
  9.4600e-10      0.9984   
  9.4700e-10      0.9912   
  9.4800e-10      0.9868   
  9.4900e-10      1.0016   
  9.5000e-10      1.0574   
  9.5100e-10      1.0809   
  9.5200e-10      0.9521   
  9.5300e-10      0.6349   
  9.5400e-10      0.3293   
  9.5500e-10      0.1229   
  9.5600e-10    6.064e-02  
  9.5700e-10    4.138e-02  
  9.5800e-10    3.419e-02  
  9.5900e-10    2.270e-02  
  9.6000e-10    1.342e-02  
  9.6100e-10    1.172e-02  
  9.6200e-10    7.890e-03  
  9.6300e-10    4.221e-03  
  9.6400e-10    1.670e-03  
  9.6500e-10    6.088e-04  
  9.6600e-10    8.319e-04  
  9.6700e-10    2.461e-04  
  9.6800e-10    9.729e-05  
  9.6900e-10    1.062e-04  
  9.7000e-10    1.354e-04  
  9.7100e-10    9.845e-05  
  9.7200e-10    1.502e-05  
  9.7300e-10    2.036e-05  
  9.7400e-10    3.000e-05  
  9.7500e-10    6.825e-06  
  9.7600e-10   -2.163e-06  
  9.7700e-10    2.370e-06  
  9.7800e-10    4.138e-06  
  9.7900e-10    6.739e-06  
  9.8000e-10    5.065e-06  
  9.8100e-10   -2.535e-05  
  9.8200e-10   -4.390e-05  
  9.8300e-10    3.883e-06  
  9.8400e-10    1.067e-04  
  9.8500e-10    3.335e-04  
  9.8600e-10   -3.082e-05  
  9.8700e-10   -9.777e-04  
  9.8800e-10   -1.829e-03  
  9.8900e-10   -5.549e-04  
  9.9000e-10    5.777e-03  
  9.9100e-10    1.079e-02  
  9.9200e-10   -3.767e-03  
  9.9300e-10   -3.679e-02  
  9.9400e-10   -8.718e-02  
  9.9500e-10   -2.331e-02  
  9.9600e-10      0.2010   
  9.9700e-10      0.4599   
  9.9800e-10      0.6721   
  9.9900e-10      0.8170   
  1.0000e-09      0.8876   
y
-----------------------------------------------
 t1= 9.2146e-13
 t2= 2.6063e-10
 period= 8.6569e-11
 delay_per_stage= 2.5461e-12

          ***** job concluded
1****** HSPICE -- G-2012.06 32-BIT (May 27 2012) RHEL32 ******                  
 ******  
 *sample netlist for bsim-mg

  ******  job statistics summary tnom=  25.000 temp=  25.000 *****
  
  
 ******  Machine Information  ******
 CPU:
 model name	: Intel(R) Xeon(R) CPU           X7350  @ 2.93GHz
 cpu MHz	: 2925.869
  
 OS:
 Linux version 2.6.18-348.4.1.el5 (mockbuild@x86-007.build.bos.redhat.com) (gcc version 4.1.2 20080704 (Red Hat 4.1.2-54)) #1 SMP Fri Mar 22 05:41:51 EDT 2013


  ******  HSPICE Threads Information  ******

  Command Line Threads Count :     1
  Available CPU Count        :     8
  Actual Threads Count       :     1


  ******  Circuit Statistics  ******
  # nodes       =      87 # elements   =      35
  # resistors   =       0 # capacitors =       0 # inductors   =       0
  # mutual_inds =       0 # vccs       =       0 # vcvs        =       0
  # cccs        =       0 # ccvs       =       0 # volt_srcs   =       1
  # curr_srcs   =       0 # diodes     =       0 # bjts        =       0
  # jfets       =       0 # mosfets    =       0 # U elements  =       0
  # T elements  =       0 # W elements =       0 # B elements  =       0
  # S elements  =       0 # P elements =       0 # va device   =      34
  # vector_srcs =       0 # N elements =       0


  ******  Runtime Statistics (seconds)  ******

  analysis           time    # points   tot. iter  conv.iter
  op point           0.06           1          27
  transient          5.95        1001        3291        1134 rev=         1
  readin             3.42
  errchk             0.08
  setup              0.00
  output             0.00


           peak memory used        119.51 megabytes
           total cpu time            9.51 seconds
           total elapsed time       20.07 seconds
           job started at     15:15:19 07/12/2013
           job ended   at     15:15:39 07/12/2013


 lic: Release hspice token(s) 
 lic: total license checkout elapse time:        0.22(s)
