 ****** HSPICE -- L-2016.03 linux64 (Feb 24 2016) ******                        
  Copyright (c) 1986 - 2017 by Synopsys, Inc. All Rights Reserved.              
  This software and the associated documentation are proprietary
  to Synopsys, Inc. This software may only be used in accordance
  with the terms and conditions of a written license agreement with
  Synopsys, Inc. All other use, reproduction, or distribution of
  this software is strictly prohibited.
  Input File: test1.sp                                                          
  Command line options: /tools/synopsys/hspice/L-2016.03/hspice/linux64/hspice -hdlpath ../code -i test1.sp -o test1
 lic:  
 lic: FLEXlm: v11.2.1 
 lic: USER:   huanlin              HOSTNAME: bwrcr720-5.eecs.berkeley.edu 
 lic: HOSTID: "c81f66efdbed"       PID:      48326 
 lic: Using FLEXlm license file: 
 lic: 1701@sunv40z-1.eecs.berkeley.edu 
 lic: Checkout 1 hspice 
 lic: License/Maintenance for hspice will expire on 19-dec-2017/2016.06 
 lic: 1(in_use)/50(total) FLOATING license(s) on SERVER 1701@sunv40z-1.eecs.berkeley.edu 
 lic:   
 **info** *pvaI* current limit stacksize=10485760, set new limit stacksize=62914560

 **info** *pvaI* Module (bsimsoi): 7 unexpanded port, 0 init, 4082 behav, 72 contrib, 39/3050 expr(s)

 **info** *pvaI*        Has DIS(DT PC), 2/48 afCount, 0 MT, dlg, 6 node(s) maybe reduced, IO(0/0/1/1)

 **info** *pvaI*        0 const-G and 0 const-C, Has switchBranch, 22 bypassOpt, 0 bus2scalar

 **warning** *pvaW*        variable 'VDSAT' initialized but not used in RHS, deleted (../code/bsimsoi.va:5983)

 **warning** *pvaW*        variable 'VTH' initialized but not used in RHS, deleted (../code/bsimsoi.va:5522)

 **warning** *pvaW*        variable 'IDS' initialized but not used in RHS, deleted (../code/bsimsoi.va:8105)

 **warning** *pvaW*        variable 'GM' initialized but not used in RHS, deleted (../code/bsimsoi.va:8106)

 **warning** *pvaW*        variable 'GDS' initialized but not used in RHS, deleted (../code/bsimsoi.va:8107)

 **warning** *pvaW*        variable 'GMBS' initialized but not used in RHS, deleted (../code/bsimsoi.va:8108)

 **warning** *pvaW*        variable 'IC' initialized but not used in RHS, deleted (../code/bsimsoi.va:8109)

 **warning** *pvaW*        variable 'IBD' initialized but not used in RHS, deleted (../code/bsimsoi.va:8111)

 **warning** *pvaW*        variable 'IBS' initialized but not used in RHS, deleted (../code/bsimsoi.va:8110)

 **warning** *pvaW*        variable 'IGIDL' initialized but not used in RHS, deleted (../code/bsimsoi.va:8112)

 **warning** *pvaW*        variable 'IGISL' initialized but not used in RHS, deleted (../code/bsimsoi.va:8113)

 **warning** *pvaW*        variable 'IGS' initialized but not used in RHS, deleted (../code/bsimsoi.va:8114)

 **warning** *pvaW*        variable 'IGD' initialized but not used in RHS, deleted (../code/bsimsoi.va:8115)

 **warning** *pvaW*        variable 'IGB' initialized but not used in RHS, deleted (../code/bsimsoi.va:8116)

 **warning** *pvaW*        variable 'IGCS' initialized but not used in RHS, deleted (../code/bsimsoi.va:8117)

 **warning** *pvaW*        variable 'IGCD' initialized but not used in RHS, deleted (../code/bsimsoi.va:8118)

 **warning** *pvaW*        variable 'CGG' initialized but not used in RHS, deleted (../code/bsimsoi.va:8129)

 **warning** *pvaW*        variable 'CGS' initialized but not used in RHS, deleted (../code/bsimsoi.va:8132)

 **warning** *pvaW*        variable 'CGD' initialized but not used in RHS, deleted (../code/bsimsoi.va:8133)

 **warning** *pvaW*        variable 'CBG' initialized but not used in RHS, deleted (../code/bsimsoi.va:8134)

 **warning** *pvaW*        variable 'CBS' initialized but not used in RHS, deleted (../code/bsimsoi.va:8136)

 **warning** *pvaW*        variable 'CBD' initialized but not used in RHS, deleted (../code/bsimsoi.va:8135)

 **warning** *pvaW*        variable 'CDG' initialized but not used in RHS, deleted (../code/bsimsoi.va:8137)

 **warning** *pvaW*        variable 'CDD' initialized but not used in RHS, deleted (../code/bsimsoi.va:8138)

 **warning** *pvaW*        variable 'CDS' initialized but not used in RHS, deleted (../code/bsimsoi.va:8139)

 **warning** *pvaW*        variable 'CAPBD' initialized but not used in RHS, deleted (../code/bsimsoi.va:8142)

 **warning** *pvaW*        variable 'CAPBS' initialized but not used in RHS, deleted (../code/bsimsoi.va:8143)

 **warning** *pvaW*        variable 'QS' initialized but not used in RHS, deleted (../code/bsimsoi.va:8124)

 **warning** *pvaW*        variable 'T_TOTAL_K' initialized but not used in RHS, deleted (../code/bsimsoi.va:4417)

 **warning** *pvaW*        variable 'T_TOTAL_C' initialized but not used in RHS, deleted (../code/bsimsoi.va:4418)

 **warning** *pvaW*        variable 'T_DELTA_SH' initialized but not used in RHS, deleted (../code/bsimsoi.va:4419)

 **info** *pvaI*        generated 5 flow node(s) during compilation.

 **info** *pvaI* #### Total 565 line-size(s), 39/3050 expr(s), 72 contr(s), 0 init(s), 4082 behav(s), 7 port(s)

 Loading pVA library test1.pvadir/pvaRTL_linux64.so...
1****** HSPICE -- L-2016.03 linux64 (Feb 24 2016) ******                        
 ******  
 *id-vd characteristics for nmos

 ****** circuit name directory
 circuit number to circuit name directory
   number circuitname                     definition         multiplier
        0 main circuit
        1 x1.                             bsimsoi(va)        1.00 
 **info** *pvaI* Creating VA module (bsimsoi) for instance X1

 **info** *pvaI* Module (bsimsoi): node 'db' shorted with port 'b' (../code/bsimsoi.va:8064)

 **info** *pvaI* Module (bsimsoi): node 'gi' shorted with port 'gm' (../code/bsimsoi.va:8045)

 **info** *pvaI* Module (bsimsoi): node 'gm' shorted with port 'g' (../code/bsimsoi.va:8037)

 **info** *pvaI* Module (bsimsoi): node 'sb' shorted with port 'b' (../code/bsimsoi.va:8065)

 **info** *pvaI*  4           nodes and 6 branches eliminated for module 'bsimsoi'

 **info** *pvaI*   3 port(s) not connected

 **info** *pvaI*        termCount=18 diwSize=368 probeSize=2287 Qsize=15 Isize=27

 End of GMD creation on Tue Nov 14 11:18:34 2017	GTM/In-use: 23.5000/21.1809 MB


  
      
  **warning**  : DCD ignored due to DCD=0.0 or DCD_TYPE=0
 *****************************************************************
 ******  option summary
 ******
 runlvl  = 3         bypass  = 2.0000    
  Opening plot unit= 15
 file=test1.pa0

 ******
 *id-vd characteristics for nmos

 ****** dc transfer curves tnom=  25.000 temp=  25.000 ******
  *** parameter 0:vg  =   0.200       ***
  
x

 volt         current   
             x1.d       
  0.         -4.346e-18 
  1.0000e-02  9.477e-12 
  2.0000e-02  1.750e-11 
  3.0000e-02  2.404e-11 
  4.0000e-02  2.919e-11 
  5.0000e-02  3.325e-11 
  6.0000e-02  3.651e-11 
  7.0000e-02  3.924e-11 
  8.0000e-02  4.168e-11 
  9.0000e-02  4.398e-11 
  0.1000      4.621e-11 
  0.1100      4.839e-11 
  0.1200      5.065e-11 
  0.1300      5.286e-11 
  0.1400      5.522e-11 
  0.1500      5.761e-11 
  0.1600      6.008e-11 
  0.1700      6.258e-11 
  0.1800      6.523e-11 
  0.1900      6.798e-11 
  0.2000      7.074e-11 
  0.2100      7.364e-11 
  0.2200      7.660e-11 
  0.2300      7.972e-11 
  0.2400      8.293e-11 
  0.2500      8.623e-11 
  0.2600      8.970e-11 
  0.2700      9.328e-11 
  0.2800      9.697e-11 
  0.2900      1.008e-10 
  0.3000      1.047e-10 
  0.3100      1.088e-10 
  0.3200      1.129e-10 
  0.3300      1.172e-10 
  0.3400      1.217e-10 
  0.3500      1.263e-10 
  0.3600      1.310e-10 
  0.3700      1.360e-10 
  0.3800      1.410e-10 
  0.3900      1.461e-10 
  0.4000      1.515e-10 
  0.4100      1.569e-10 
  0.4200      1.626e-10 
  0.4300      1.685e-10 
  0.4400      1.745e-10 
  0.4500      1.807e-10 
  0.4600      1.870e-10 
  0.4700      1.935e-10 
  0.4800      2.003e-10 
  0.4900      2.073e-10 
  0.5000      2.143e-10 
  0.5100      2.216e-10 
  0.5200      2.290e-10 
  0.5300      2.367e-10 
  0.5400      2.445e-10 
  0.5500      2.527e-10 
  0.5600      2.610e-10 
  0.5700      2.696e-10 
  0.5800      2.782e-10 
  0.5900      2.872e-10 
  0.6000      2.962e-10 
  0.6100      3.056e-10 
  0.6200      3.153e-10 
  0.6300      3.250e-10 
  0.6400      3.351e-10 
  0.6500      3.455e-10 
  0.6600      3.561e-10 
  0.6700      3.669e-10 
  0.6800      3.779e-10 
  0.6900      3.892e-10 
  0.7000      4.005e-10 
  0.7100      4.125e-10 
  0.7200      4.245e-10 
  0.7300      4.368e-10 
  0.7400      4.492e-10 
  0.7500      4.620e-10 
  0.7600      4.753e-10 
  0.7700      4.887e-10 
  0.7800      5.024e-10 
  0.7900      5.163e-10 
  0.8000      5.302e-10 
  0.8100      5.447e-10 
  0.8200      5.595e-10 
  0.8300      5.746e-10 
  0.8400      5.899e-10 
  0.8500      6.052e-10 
  0.8600      6.212e-10 
  0.8700      6.373e-10 
  0.8800      6.538e-10 
  0.8900      6.705e-10 
  0.9000      6.877e-10 
  0.9100      7.050e-10 
  0.9200      7.226e-10 
  0.9300      7.406e-10 
  0.9400      7.587e-10 
  0.9500      7.773e-10 
  0.9600      7.961e-10 
  0.9700      8.152e-10 
  0.9800      8.348e-10 
  0.9900      8.546e-10 
  1.0000      8.746e-10 
  1.0100      8.951e-10 
  1.0200      9.157e-10 
  1.0300      9.366e-10 
  1.0400      9.579e-10 
  1.0500      9.795e-10 
  1.0600      1.002e-09 
  1.0700      1.024e-09 
  1.0800      1.046e-09 
  1.0900      1.069e-09 
  1.1000      1.093e-09 
  1.1100      1.116e-09 
  1.1200      1.140e-09 
  1.1300      1.164e-09 
  1.1400      1.189e-09 
  1.1500      1.213e-09 
  1.1600      1.239e-09 
  1.1700      1.265e-09 
  1.1800      1.290e-09 
  1.1900      1.316e-09 
  1.2000      1.343e-09 
y
 ******
 *id-vd characteristics for nmos

 ****** dc transfer curves tnom=  25.000 temp=  25.000 ******
  *** parameter 0:vg  =   0.300       ***
  
x

 volt         current   
             x1.d       
  0.         -9.661e-18 
  1.0000e-02  1.182e-10 
  2.0000e-02  2.178e-10 
  3.0000e-02  2.985e-10 
  4.0000e-02  3.619e-10 
  5.0000e-02  4.112e-10 
  6.0000e-02  4.504e-10 
  7.0000e-02  4.833e-10 
  8.0000e-02  5.124e-10 
  9.0000e-02  5.394e-10 
  0.1000      5.656e-10 
  0.1100      5.914e-10 
  0.1200      6.174e-10 
  0.1300      6.437e-10 
  0.1400      6.705e-10 
  0.1500      6.981e-10 
  0.1600      7.264e-10 
  0.1700      7.555e-10 
  0.1800      7.857e-10 
  0.1900      8.167e-10 
  0.2000      8.488e-10 
  0.2100      8.818e-10 
  0.2200      9.160e-10 
  0.2300      9.512e-10 
  0.2400      9.877e-10 
  0.2500      1.025e-09 
  0.2600      1.064e-09 
  0.2700      1.104e-09 
  0.2800      1.145e-09 
  0.2900      1.188e-09 
  0.3000      1.232e-09 
  0.3100      1.277e-09 
  0.3200      1.323e-09 
  0.3300      1.371e-09 
  0.3400      1.421e-09 
  0.3500      1.471e-09 
  0.3600      1.524e-09 
  0.3700      1.578e-09 
  0.3800      1.633e-09 
  0.3900      1.690e-09 
  0.4000      1.748e-09 
  0.4100      1.808e-09 
  0.4200      1.870e-09 
  0.4300      1.933e-09 
  0.4400      1.998e-09 
  0.4500      2.065e-09 
  0.4600      2.134e-09 
  0.4700      2.204e-09 
  0.4800      2.276e-09 
  0.4900      2.350e-09 
  0.5000      2.426e-09 
  0.5100      2.504e-09 
  0.5200      2.584e-09 
  0.5300      2.665e-09 
  0.5400      2.749e-09 
  0.5500      2.834e-09 
  0.5600      2.922e-09 
  0.5700      3.012e-09 
  0.5800      3.103e-09 
  0.5900      3.197e-09 
  0.6000      3.293e-09 
  0.6100      3.391e-09 
  0.6200      3.492e-09 
  0.6300      3.594e-09 
  0.6400      3.699e-09 
  0.6500      3.806e-09 
  0.6600      3.915e-09 
  0.6700      4.026e-09 
  0.6800      4.140e-09 
  0.6900      4.256e-09 
  0.7000      4.375e-09 
  0.7100      4.496e-09 
  0.7200      4.619e-09 
  0.7300      4.744e-09 
  0.7400      4.872e-09 
  0.7500      5.003e-09 
  0.7600      5.135e-09 
  0.7700      5.271e-09 
  0.7800      5.409e-09 
  0.7900      5.549e-09 
  0.8000      5.691e-09 
  0.8100      5.837e-09 
  0.8200      5.985e-09 
  0.8300      6.135e-09 
  0.8400      6.288e-09 
  0.8500      6.443e-09 
  0.8600      6.602e-09 
  0.8700      6.762e-09 
  0.8800      6.925e-09 
  0.8900      7.091e-09 
  0.9000      7.260e-09 
  0.9100      7.431e-09 
  0.9200      7.604e-09 
  0.9300      7.781e-09 
  0.9400      7.960e-09 
  0.9500      8.141e-09 
  0.9600      8.326e-09 
  0.9700      8.513e-09 
  0.9800      8.702e-09 
  0.9900      8.895e-09 
  1.0000      9.090e-09 
  1.0100      9.287e-09 
  1.0200      9.488e-09 
  1.0300      9.690e-09 
  1.0400      9.897e-09 
  1.0500      1.011e-08 
  1.0600      1.032e-08 
  1.0700      1.053e-08 
  1.0800      1.075e-08 
  1.0900      1.097e-08 
  1.1000      1.119e-08 
  1.1100      1.141e-08 
  1.1200      1.164e-08 
  1.1300      1.187e-08 
  1.1400      1.210e-08 
  1.1500      1.234e-08 
  1.1600      1.258e-08 
  1.1700      1.282e-08 
  1.1800      1.306e-08 
  1.1900      1.331e-08 
  1.2000      1.356e-08 
y
 ******
 *id-vd characteristics for nmos

 ****** dc transfer curves tnom=  25.000 temp=  25.000 ******
  *** parameter 0:vg  =   0.400       ***
  
x

 volt         current   
             x1.d       
  0.         -1.878e-17 
  1.0000e-02  1.396e-09 
  2.0000e-02  2.566e-09 
  3.0000e-02  3.509e-09 
  4.0000e-02  4.243e-09 
  5.0000e-02  4.809e-09 
  6.0000e-02  5.255e-09 
  7.0000e-02  5.624e-09 
  8.0000e-02  5.948e-09 
  9.0000e-02  6.247e-09 
  0.1000      6.533e-09 
  0.1100      6.814e-09 
  0.1200      7.095e-09 
  0.1300      7.378e-09 
  0.1400      7.667e-09 
  0.1500      7.962e-09 
  0.1600      8.264e-09 
  0.1700      8.574e-09 
  0.1800      8.893e-09 
  0.1900      9.221e-09 
  0.2000      9.558e-09 
  0.2100      9.906e-09 
  0.2200      1.026e-08 
  0.2300      1.063e-08 
  0.2400      1.101e-08 
  0.2500      1.140e-08 
  0.2600      1.180e-08 
  0.2700      1.221e-08 
  0.2800      1.264e-08 
  0.2900      1.307e-08 
  0.3000      1.352e-08 
  0.3100      1.398e-08 
  0.3200      1.446e-08 
  0.3300      1.494e-08 
  0.3400      1.544e-08 
  0.3500      1.595e-08 
  0.3600      1.648e-08 
  0.3700      1.702e-08 
  0.3800      1.757e-08 
  0.3900      1.814e-08 
  0.4000      1.872e-08 
  0.4100      1.931e-08 
  0.4200      1.992e-08 
  0.4300      2.055e-08 
  0.4400      2.119e-08 
  0.4500      2.184e-08 
  0.4600      2.251e-08 
  0.4700      2.320e-08 
  0.4800      2.390e-08 
  0.4900      2.462e-08 
  0.5000      2.535e-08 
  0.5100      2.610e-08 
  0.5200      2.686e-08 
  0.5300      2.765e-08 
  0.5400      2.845e-08 
  0.5500      2.926e-08 
  0.5600      3.009e-08 
  0.5700      3.095e-08 
  0.5800      3.181e-08 
  0.5900      3.270e-08 
  0.6000      3.360e-08 
  0.6100      3.452e-08 
  0.6200      3.546e-08 
  0.6300      3.642e-08 
  0.6400      3.739e-08 
  0.6500      3.839e-08 
  0.6600      3.940e-08 
  0.6700      4.043e-08 
  0.6800      4.148e-08 
  0.6900      4.254e-08 
  0.7000      4.363e-08 
  0.7100      4.474e-08 
  0.7200      4.586e-08 
  0.7300      4.700e-08 
  0.7400      4.817e-08 
  0.7500      4.935e-08 
  0.7600      5.055e-08 
  0.7700      5.177e-08 
  0.7800      5.301e-08 
  0.7900      5.427e-08 
  0.8000      5.555e-08 
  0.8100      5.685e-08 
  0.8200      5.817e-08 
  0.8300      5.951e-08 
  0.8400      6.087e-08 
  0.8500      6.224e-08 
  0.8600      6.364e-08 
  0.8700      6.506e-08 
  0.8800      6.650e-08 
  0.8900      6.796e-08 
  0.9000      6.944e-08 
  0.9100      7.093e-08 
  0.9200      7.245e-08 
  0.9300      7.399e-08 
  0.9400      7.555e-08 
  0.9500      7.713e-08 
  0.9600      7.873e-08 
  0.9700      8.035e-08 
  0.9800      8.199e-08 
  0.9900      8.365e-08 
  1.0000      8.533e-08 
  1.0100      8.704e-08 
  1.0200      8.876e-08 
  1.0300      9.051e-08 
  1.0400      9.227e-08 
  1.0500      9.406e-08 
  1.0600      9.587e-08 
  1.0700      9.770e-08 
  1.0800      9.955e-08 
  1.0900      1.014e-07 
  1.1000      1.033e-07 
  1.1100      1.052e-07 
  1.1200      1.072e-07 
  1.1300      1.091e-07 
  1.1400      1.111e-07 
  1.1500      1.131e-07 
  1.1600      1.152e-07 
  1.1700      1.172e-07 
  1.1800      1.193e-07 
  1.1900      1.214e-07 
  1.2000      1.235e-07 
y
 ******
 *id-vd characteristics for nmos

 ****** dc transfer curves tnom=  25.000 temp=  25.000 ******
  *** parameter 0:vg  =   0.500       ***
  
x

 volt         current   
             x1.d       
  0.         -3.416e-17 
  1.0000e-02  1.440e-08 
  2.0000e-02  2.643e-08 
  3.0000e-02  3.611e-08 
  4.0000e-02  4.364e-08 
  5.0000e-02  4.940e-08 
  6.0000e-02  5.389e-08 
  7.0000e-02  5.754e-08 
  8.0000e-02  6.069e-08 
  9.0000e-02  6.355e-08 
  0.1000      6.625e-08 
  0.1100      6.887e-08 
  0.1200      7.148e-08 
  0.1300      7.409e-08 
  0.1400      7.673e-08 
  0.1500      7.941e-08 
  0.1600      8.214e-08 
  0.1700      8.494e-08 
  0.1800      8.780e-08 
  0.1900      9.073e-08 
  0.2000      9.374e-08 
  0.2100      9.682e-08 
  0.2200      9.997e-08 
  0.2300      1.032e-07 
  0.2400      1.065e-07 
  0.2500      1.099e-07 
  0.2600      1.134e-07 
  0.2700      1.170e-07 
  0.2800      1.207e-07 
  0.2900      1.244e-07 
  0.3000      1.283e-07 
  0.3100      1.322e-07 
  0.3200      1.362e-07 
  0.3300      1.403e-07 
  0.3400      1.446e-07 
  0.3500      1.489e-07 
  0.3600      1.533e-07 
  0.3700      1.578e-07 
  0.3800      1.624e-07 
  0.3900      1.671e-07 
  0.4000      1.719e-07 
  0.4100      1.768e-07 
  0.4200      1.818e-07 
  0.4300      1.869e-07 
  0.4400      1.922e-07 
  0.4500      1.975e-07 
  0.4600      2.029e-07 
  0.4700      2.085e-07 
  0.4800      2.141e-07 
  0.4900      2.199e-07 
  0.5000      2.258e-07 
  0.5100      2.318e-07 
  0.5200      2.379e-07 
  0.5300      2.441e-07 
  0.5400      2.504e-07 
  0.5500      2.568e-07 
  0.5600      2.634e-07 
  0.5700      2.701e-07 
  0.5800      2.768e-07 
  0.5900      2.837e-07 
  0.6000      2.908e-07 
  0.6100      2.979e-07 
  0.6200      3.052e-07 
  0.6300      3.125e-07 
  0.6400      3.200e-07 
  0.6500      3.277e-07 
  0.6600      3.354e-07 
  0.6700      3.433e-07 
  0.6800      3.512e-07 
  0.6900      3.594e-07 
  0.7000      3.676e-07 
  0.7100      3.759e-07 
  0.7200      3.844e-07 
  0.7300      3.930e-07 
  0.7400      4.017e-07 
  0.7500      4.106e-07 
  0.7600      4.195e-07 
  0.7700      4.286e-07 
  0.7800      4.379e-07 
  0.7900      4.472e-07 
  0.8000      4.567e-07 
  0.8100      4.663e-07 
  0.8200      4.760e-07 
  0.8300      4.859e-07 
  0.8400      4.958e-07 
  0.8500      5.060e-07 
  0.8600      5.162e-07 
  0.8700      5.266e-07 
  0.8800      5.371e-07 
  0.8900      5.477e-07 
  0.9000      5.585e-07 
  0.9100      5.694e-07 
  0.9200      5.805e-07 
  0.9300      5.916e-07 
  0.9400      6.030e-07 
  0.9500      6.144e-07 
  0.9600      6.260e-07 
  0.9700      6.378e-07 
  0.9800      6.497e-07 
  0.9900      6.617e-07 
  1.0000      6.740e-07 
  1.0100      6.863e-07 
  1.0200      6.988e-07 
  1.0300      7.115e-07 
  1.0400      7.244e-07 
  1.0500      7.374e-07 
  1.0600      7.506e-07 
  1.0700      7.640e-07 
  1.0800      7.776e-07 
  1.0900      7.914e-07 
  1.1000      8.054e-07 
  1.1100      8.196e-07 
  1.1200      8.340e-07 
  1.1300      8.487e-07 
  1.1400      8.636e-07 
  1.1500      8.787e-07 
  1.1600      8.942e-07 
  1.1700      9.099e-07 
  1.1800      9.259e-07 
  1.1900      9.422e-07 
  1.2000      9.589e-07 
y
 ******
 *id-vd characteristics for nmos

 ****** dc transfer curves tnom=  25.000 temp=  25.000 ******
  *** parameter 0:vg  =   0.600       ***
  
x

 volt         current   
             x1.d       
  0.         -6.438e-17 
  1.0000e-02  1.097e-07 
  2.0000e-02  2.040e-07 
  3.0000e-02  2.828e-07 
  4.0000e-02  3.467e-07 
  5.0000e-02  3.975e-07 
  6.0000e-02  4.377e-07 
  7.0000e-02  4.700e-07 
  8.0000e-02  4.970e-07 
  9.0000e-02  5.206e-07 
  0.1000      5.421e-07 
  0.1100      5.625e-07 
  0.1200      5.823e-07 
  0.1300      6.018e-07 
  0.1400      6.213e-07 
  0.1500      6.409e-07 
  0.1600      6.607e-07 
  0.1700      6.808e-07 
  0.1800      7.013e-07 
  0.1900      7.221e-07 
  0.2000      7.434e-07 
  0.2100      7.650e-07 
  0.2200      7.871e-07 
  0.2300      8.097e-07 
  0.2400      8.327e-07 
  0.2500      8.562e-07 
  0.2600      8.802e-07 
  0.2700      9.047e-07 
  0.2800      9.297e-07 
  0.2900      9.551e-07 
  0.3000      9.811e-07 
  0.3100      1.008e-06 
  0.3200      1.035e-06 
  0.3300      1.062e-06 
  0.3400      1.090e-06 
  0.3500      1.118e-06 
  0.3600      1.148e-06 
  0.3700      1.177e-06 
  0.3800      1.207e-06 
  0.3900      1.238e-06 
  0.4000      1.269e-06 
  0.4100      1.301e-06 
  0.4200      1.333e-06 
  0.4300      1.365e-06 
  0.4400      1.399e-06 
  0.4500      1.433e-06 
  0.4600      1.467e-06 
  0.4700      1.502e-06 
  0.4800      1.537e-06 
  0.4900      1.573e-06 
  0.5000      1.610e-06 
  0.5100      1.647e-06 
  0.5200      1.684e-06 
  0.5300      1.723e-06 
  0.5400      1.761e-06 
  0.5500      1.801e-06 
  0.5600      1.840e-06 
  0.5700      1.881e-06 
  0.5800      1.922e-06 
  0.5900      1.963e-06 
  0.6000      2.005e-06 
  0.6100      2.047e-06 
  0.6200      2.091e-06 
  0.6300      2.134e-06 
  0.6400      2.178e-06 
  0.6500      2.223e-06 
  0.6600      2.268e-06 
  0.6700      2.314e-06 
  0.6800      2.361e-06 
  0.6900      2.408e-06 
  0.7000      2.455e-06 
  0.7100      2.503e-06 
  0.7200      2.552e-06 
  0.7300      2.601e-06 
  0.7400      2.651e-06 
  0.7500      2.701e-06 
  0.7600      2.752e-06 
  0.7700      2.804e-06 
  0.7800      2.856e-06 
  0.7900      2.908e-06 
  0.8000      2.962e-06 
  0.8100      3.015e-06 
  0.8200      3.070e-06 
  0.8300      3.125e-06 
  0.8400      3.181e-06 
  0.8500      3.237e-06 
  0.8600      3.294e-06 
  0.8700      3.352e-06 
  0.8800      3.410e-06 
  0.8900      3.469e-06 
  0.9000      3.529e-06 
  0.9100      3.590e-06 
  0.9200      3.651e-06 
  0.9300      3.714e-06 
  0.9400      3.777e-06 
  0.9500      3.840e-06 
  0.9600      3.905e-06 
  0.9700      3.971e-06 
  0.9800      4.037e-06 
  0.9900      4.105e-06 
  1.0000      4.174e-06 
  1.0100      4.244e-06 
  1.0200      4.314e-06 
  1.0300      4.387e-06 
  1.0400      4.460e-06 
  1.0500      4.535e-06 
  1.0600      4.611e-06 
  1.0700      4.688e-06 
  1.0800      4.767e-06 
  1.0900      4.848e-06 
  1.1000      4.931e-06 
  1.1100      5.015e-06 
  1.1200      5.101e-06 
  1.1300      5.189e-06 
  1.1400      5.279e-06 
  1.1500      5.371e-06 
  1.1600      5.466e-06 
  1.1700      5.563e-06 
  1.1800      5.662e-06 
  1.1900      5.764e-06 
  1.2000      5.869e-06 
y
 ******
 *id-vd characteristics for nmos

 ****** dc transfer curves tnom=  25.000 temp=  25.000 ******
  *** parameter 0:vg  =   0.700       ***
  
x

 volt         current   
             x1.d       
  0.         -1.575e-16 
  1.0000e-02  5.051e-07 
  2.0000e-02  9.675e-07 
  3.0000e-02  1.386e-06 
  4.0000e-02  1.761e-06 
  5.0000e-02  2.091e-06 
  6.0000e-02  2.380e-06 
  7.0000e-02  2.629e-06 
  8.0000e-02  2.843e-06 
  9.0000e-02  3.026e-06 
  0.1000      3.185e-06 
  0.1100      3.325e-06 
  0.1200      3.451e-06 
  0.1300      3.568e-06 
  0.1400      3.679e-06 
  0.1500      3.785e-06 
  0.1600      3.889e-06 
  0.1700      3.992e-06 
  0.1800      4.094e-06 
  0.1900      4.196e-06 
  0.2000      4.298e-06 
  0.2100      4.401e-06 
  0.2200      4.505e-06 
  0.2300      4.610e-06 
  0.2400      4.716e-06 
  0.2500      4.823e-06 
  0.2600      4.931e-06 
  0.2700      5.041e-06 
  0.2800      5.151e-06 
  0.2900      5.263e-06 
  0.3000      5.376e-06 
  0.3100      5.491e-06 
  0.3200      5.607e-06 
  0.3300      5.724e-06 
  0.3400      5.842e-06 
  0.3500      5.961e-06 
  0.3600      6.082e-06 
  0.3700      6.204e-06 
  0.3800      6.328e-06 
  0.3900      6.452e-06 
  0.4000      6.578e-06 
  0.4100      6.705e-06 
  0.4200      6.833e-06 
  0.4300      6.963e-06 
  0.4400      7.093e-06 
  0.4500      7.225e-06 
  0.4600      7.358e-06 
  0.4700      7.493e-06 
  0.4800      7.628e-06 
  0.4900      7.765e-06 
  0.5000      7.903e-06 
  0.5100      8.042e-06 
  0.5200      8.182e-06 
  0.5300      8.323e-06 
  0.5400      8.466e-06 
  0.5500      8.609e-06 
  0.5600      8.754e-06 
  0.5700      8.900e-06 
  0.5800      9.047e-06 
  0.5900      9.195e-06 
  0.6000      9.344e-06 
  0.6100      9.495e-06 
  0.6200      9.646e-06 
  0.6300      9.799e-06 
  0.6400      9.953e-06 
  0.6500      1.011e-05 
  0.6600      1.026e-05 
  0.6700      1.042e-05 
  0.6800      1.058e-05 
  0.6900      1.074e-05 
  0.7000      1.090e-05 
  0.7100      1.106e-05 
  0.7200      1.123e-05 
  0.7300      1.139e-05 
  0.7400      1.156e-05 
  0.7500      1.172e-05 
  0.7600      1.189e-05 
  0.7700      1.206e-05 
  0.7800      1.223e-05 
  0.7900      1.241e-05 
  0.8000      1.258e-05 
  0.8100      1.276e-05 
  0.8200      1.293e-05 
  0.8300      1.311e-05 
  0.8400      1.329e-05 
  0.8500      1.348e-05 
  0.8600      1.366e-05 
  0.8700      1.385e-05 
  0.8800      1.404e-05 
  0.8900      1.423e-05 
  0.9000      1.442e-05 
  0.9100      1.461e-05 
  0.9200      1.481e-05 
  0.9300      1.501e-05 
  0.9400      1.521e-05 
  0.9500      1.542e-05 
  0.9600      1.562e-05 
  0.9700      1.584e-05 
  0.9800      1.605e-05 
  0.9900      1.627e-05 
  1.0000      1.649e-05 
  1.0100      1.671e-05 
  1.0200      1.694e-05 
  1.0300      1.717e-05 
  1.0400      1.740e-05 
  1.0500      1.764e-05 
  1.0600      1.788e-05 
  1.0700      1.813e-05 
  1.0800      1.838e-05 
  1.0900      1.864e-05 
  1.1000      1.890e-05 
  1.1100      1.916e-05 
  1.1200      1.943e-05 
  1.1300      1.971e-05 
  1.1400      1.999e-05 
  1.1500      2.027e-05 
  1.1600      2.056e-05 
  1.1700      2.085e-05 
  1.1800      2.115e-05 
  1.1900      2.146e-05 
  1.2000      2.177e-05 
y
 ******
 *id-vd characteristics for nmos

 ****** dc transfer curves tnom=  25.000 temp=  25.000 ******
  *** parameter 0:vg  =   0.800       ***
  
x

 volt         current   
             x1.d       
  0.         -5.578e-16 
  1.0000e-02  1.325e-06 
  2.0000e-02  2.587e-06 
  3.0000e-02  3.782e-06 
  4.0000e-02  4.910e-06 
  5.0000e-02  5.969e-06 
  6.0000e-02  6.959e-06 
  7.0000e-02  7.880e-06 
  8.0000e-02  8.733e-06 
  9.0000e-02  9.520e-06 
  0.1000      1.024e-05 
  0.1100      1.090e-05 
  0.1200      1.150e-05 
  0.1300      1.205e-05 
  0.1400      1.255e-05 
  0.1500      1.300e-05 
  0.1600      1.342e-05 
  0.1700      1.380e-05 
  0.1800      1.416e-05 
  0.1900      1.450e-05 
  0.2000      1.481e-05 
  0.2100      1.512e-05 
  0.2200      1.542e-05 
  0.2300      1.571e-05 
  0.2400      1.599e-05 
  0.2500      1.628e-05 
  0.2600      1.656e-05 
  0.2700      1.684e-05 
  0.2800      1.711e-05 
  0.2900      1.739e-05 
  0.3000      1.767e-05 
  0.3100      1.795e-05 
  0.3200      1.822e-05 
  0.3300      1.850e-05 
  0.3400      1.878e-05 
  0.3500      1.906e-05 
  0.3600      1.934e-05 
  0.3700      1.962e-05 
  0.3800      1.990e-05 
  0.3900      2.019e-05 
  0.4000      2.047e-05 
  0.4100      2.076e-05 
  0.4200      2.104e-05 
  0.4300      2.133e-05 
  0.4400      2.162e-05 
  0.4500      2.191e-05 
  0.4600      2.220e-05 
  0.4700      2.249e-05 
  0.4800      2.278e-05 
  0.4900      2.307e-05 
  0.5000      2.336e-05 
  0.5100      2.366e-05 
  0.5200      2.396e-05 
  0.5300      2.425e-05 
  0.5400      2.455e-05 
  0.5500      2.485e-05 
  0.5600      2.515e-05 
  0.5700      2.545e-05 
  0.5800      2.575e-05 
  0.5900      2.606e-05 
  0.6000      2.636e-05 
  0.6100      2.667e-05 
  0.6200      2.697e-05 
  0.6300      2.728e-05 
  0.6400      2.759e-05 
  0.6500      2.790e-05 
  0.6600      2.821e-05 
  0.6700      2.853e-05 
  0.6800      2.884e-05 
  0.6900      2.916e-05 
  0.7000      2.947e-05 
  0.7100      2.979e-05 
  0.7200      3.011e-05 
  0.7300      3.043e-05 
  0.7400      3.076e-05 
  0.7500      3.108e-05 
  0.7600      3.141e-05 
  0.7700      3.174e-05 
  0.7800      3.207e-05 
  0.7900      3.240e-05 
  0.8000      3.274e-05 
  0.8100      3.308e-05 
  0.8200      3.342e-05 
  0.8300      3.376e-05 
  0.8400      3.410e-05 
  0.8500      3.445e-05 
  0.8600      3.480e-05 
  0.8700      3.516e-05 
  0.8800      3.551e-05 
  0.8900      3.587e-05 
  0.9000      3.624e-05 
  0.9100      3.660e-05 
  0.9200      3.697e-05 
  0.9300      3.735e-05 
  0.9400      3.773e-05 
  0.9500      3.811e-05 
  0.9600      3.849e-05 
  0.9700      3.888e-05 
  0.9800      3.928e-05 
  0.9900      3.968e-05 
  1.0000      4.008e-05 
  1.0100      4.049e-05 
  1.0200      4.090e-05 
  1.0300      4.132e-05 
  1.0400      4.175e-05 
  1.0500      4.218e-05 
  1.0600      4.261e-05 
  1.0700      4.305e-05 
  1.0800      4.350e-05 
  1.0900      4.395e-05 
  1.1000      4.440e-05 
  1.1100      4.486e-05 
  1.1200      4.533e-05 
  1.1300      4.580e-05 
  1.1400      4.628e-05 
  1.1500      4.677e-05 
  1.1600      4.726e-05 
  1.1700      4.775e-05 
  1.1800      4.825e-05 
  1.1900      4.876e-05 
  1.2000      4.927e-05 
y
 ******
 *id-vd characteristics for nmos

 ****** dc transfer curves tnom=  25.000 temp=  25.000 ******
  *** parameter 0:vg  =   0.900       ***
  
x

 volt         current   
             x1.d       
  0.         -2.372e-15 
  1.0000e-02  2.391e-06 
  2.0000e-02  4.704e-06 
  3.0000e-02  6.933e-06 
  4.0000e-02  9.076e-06 
  5.0000e-02  1.113e-05 
  6.0000e-02  1.309e-05 
  7.0000e-02  1.496e-05 
  8.0000e-02  1.674e-05 
  9.0000e-02  1.843e-05 
  0.1000      2.003e-05 
  0.1100      2.155e-05 
  0.1200      2.297e-05 
  0.1300      2.432e-05 
  0.1400      2.559e-05 
  0.1500      2.678e-05 
  0.1600      2.790e-05 
  0.1700      2.894e-05 
  0.1800      2.992e-05 
  0.1900      3.083e-05 
  0.2000      3.168e-05 
  0.2100      3.248e-05 
  0.2200      3.322e-05 
  0.2300      3.392e-05 
  0.2400      3.458e-05 
  0.2500      3.520e-05 
  0.2600      3.578e-05 
  0.2700      3.635e-05 
  0.2800      3.689e-05 
  0.2900      3.741e-05 
  0.3000      3.792e-05 
  0.3100      3.842e-05 
  0.3200      3.890e-05 
  0.3300      3.938e-05 
  0.3400      3.986e-05 
  0.3500      4.033e-05 
  0.3600      4.080e-05 
  0.3700      4.126e-05 
  0.3800      4.172e-05 
  0.3900      4.218e-05 
  0.4000      4.264e-05 
  0.4100      4.310e-05 
  0.4200      4.355e-05 
  0.4300      4.401e-05 
  0.4400      4.446e-05 
  0.4500      4.492e-05 
  0.4600      4.537e-05 
  0.4700      4.583e-05 
  0.4800      4.628e-05 
  0.4900      4.674e-05 
  0.5000      4.719e-05 
  0.5100      4.764e-05 
  0.5200      4.810e-05 
  0.5300      4.855e-05 
  0.5400      4.901e-05 
  0.5500      4.946e-05 
  0.5600      4.992e-05 
  0.5700      5.037e-05 
  0.5800      5.083e-05 
  0.5900      5.129e-05 
  0.6000      5.174e-05 
  0.6100      5.220e-05 
  0.6200      5.266e-05 
  0.6300      5.312e-05 
  0.6400      5.358e-05 
  0.6500      5.404e-05 
  0.6600      5.450e-05 
  0.6700      5.496e-05 
  0.6800      5.543e-05 
  0.6900      5.589e-05 
  0.7000      5.636e-05 
  0.7100      5.682e-05 
  0.7200      5.729e-05 
  0.7300      5.776e-05 
  0.7400      5.824e-05 
  0.7500      5.871e-05 
  0.7600      5.918e-05 
  0.7700      5.966e-05 
  0.7800      6.014e-05 
  0.7900      6.062e-05 
  0.8000      6.111e-05 
  0.8100      6.159e-05 
  0.8200      6.208e-05 
  0.8300      6.257e-05 
  0.8400      6.307e-05 
  0.8500      6.356e-05 
  0.8600      6.406e-05 
  0.8700      6.457e-05 
  0.8800      6.507e-05 
  0.8900      6.558e-05 
  0.9000      6.610e-05 
  0.9100      6.662e-05 
  0.9200      6.714e-05 
  0.9300      6.766e-05 
  0.9400      6.819e-05 
  0.9500      6.873e-05 
  0.9600      6.927e-05 
  0.9700      6.981e-05 
  0.9800      7.036e-05 
  0.9900      7.091e-05 
  1.0000      7.147e-05 
  1.0100      7.204e-05 
  1.0200      7.261e-05 
  1.0300      7.318e-05 
  1.0400      7.376e-05 
  1.0500      7.434e-05 
  1.0600      7.493e-05 
  1.0700      7.553e-05 
  1.0800      7.613e-05 
  1.0900      7.674e-05 
  1.1000      7.735e-05 
  1.1100      7.797e-05 
  1.1200      7.859e-05 
  1.1300      7.922e-05 
  1.1400      7.985e-05 
  1.1500      8.049e-05 
  1.1600      8.113e-05 
  1.1700      8.178e-05 
  1.1800      8.244e-05 
  1.1900      8.310e-05 
  1.2000      8.376e-05 
y
 ******
 *id-vd characteristics for nmos

 ****** dc transfer curves tnom=  25.000 temp=  25.000 ******
  *** parameter 0:vg  =   1.000       ***
  
x

 volt         current   
             x1.d       
  0.         -1.026e-14 
  1.0000e-02  3.511e-06 
  2.0000e-02  6.934e-06 
  3.0000e-02  1.026e-05 
  4.0000e-02  1.349e-05 
  5.0000e-02  1.662e-05 
  6.0000e-02  1.964e-05 
  7.0000e-02  2.256e-05 
  8.0000e-02  2.537e-05 
  9.0000e-02  2.807e-05 
  0.1000      3.066e-05 
  0.1100      3.315e-05 
  0.1200      3.553e-05 
  0.1300      3.780e-05 
  0.1400      3.998e-05 
  0.1500      4.206e-05 
  0.1600      4.404e-05 
  0.1700      4.592e-05 
  0.1800      4.771e-05 
  0.1900      4.941e-05 
  0.2000      5.103e-05 
  0.2100      5.256e-05 
  0.2200      5.401e-05 
  0.2300      5.538e-05 
  0.2400      5.667e-05 
  0.2500      5.789e-05 
  0.2600      5.904e-05 
  0.2700      6.013e-05 
  0.2800      6.116e-05 
  0.2900      6.212e-05 
  0.3000      6.304e-05 
  0.3100      6.391e-05 
  0.3200      6.474e-05 
  0.3300      6.553e-05 
  0.3400      6.629e-05 
  0.3500      6.702e-05 
  0.3600      6.772e-05 
  0.3700      6.841e-05 
  0.3800      6.908e-05 
  0.3900      6.974e-05 
  0.4000      7.038e-05 
  0.4100      7.102e-05 
  0.4200      7.165e-05 
  0.4300      7.227e-05 
  0.4400      7.289e-05 
  0.4500      7.350e-05 
  0.4600      7.412e-05 
  0.4700      7.472e-05 
  0.4800      7.533e-05 
  0.4900      7.593e-05 
  0.5000      7.653e-05 
  0.5100      7.713e-05 
  0.5200      7.773e-05 
  0.5300      7.833e-05 
  0.5400      7.893e-05 
  0.5500      7.953e-05 
  0.5600      8.012e-05 
  0.5700      8.072e-05 
  0.5800      8.131e-05 
  0.5900      8.191e-05 
  0.6000      8.250e-05 
  0.6100      8.310e-05 
  0.6200      8.369e-05 
  0.6300      8.429e-05 
  0.6400      8.488e-05 
  0.6500      8.548e-05 
  0.6600      8.607e-05 
  0.6700      8.667e-05 
  0.6800      8.727e-05 
  0.6900      8.786e-05 
  0.7000      8.846e-05 
  0.7100      8.906e-05 
  0.7200      8.966e-05 
  0.7300      9.026e-05 
  0.7400      9.086e-05 
  0.7500      9.147e-05 
  0.7600      9.207e-05 
  0.7700      9.268e-05 
  0.7800      9.328e-05 
  0.7900      9.389e-05 
  0.8000      9.451e-05 
  0.8100      9.512e-05 
  0.8200      9.574e-05 
  0.8300      9.635e-05 
  0.8400      9.698e-05 
  0.8500      9.760e-05 
  0.8600      9.823e-05 
  0.8700      9.886e-05 
  0.8800      9.949e-05 
  0.8900      1.001e-04 
  0.9000      1.008e-04 
  0.9100      1.014e-04 
  0.9200      1.021e-04 
  0.9300      1.027e-04 
  0.9400      1.034e-04 
  0.9500      1.040e-04 
  0.9600      1.047e-04 
  0.9700      1.054e-04 
  0.9800      1.060e-04 
  0.9900      1.067e-04 
  1.0000      1.074e-04 
  1.0100      1.081e-04 
  1.0200      1.088e-04 
  1.0300      1.095e-04 
  1.0400      1.102e-04 
  1.0500      1.109e-04 
  1.0600      1.116e-04 
  1.0700      1.123e-04 
  1.0800      1.131e-04 
  1.0900      1.138e-04 
  1.1000      1.145e-04 
  1.1100      1.153e-04 
  1.1200      1.160e-04 
  1.1300      1.168e-04 
  1.1400      1.175e-04 
  1.1500      1.183e-04 
  1.1600      1.191e-04 
  1.1700      1.198e-04 
  1.1800      1.206e-04 
  1.1900      1.214e-04 
  1.2000      1.222e-04 
y
 ******
 *id-vd characteristics for nmos

 ****** dc transfer curves tnom=  25.000 temp=  25.000 ******
  *** parameter 0:vg  =   1.100       ***
  
x

 volt         current   
             x1.d       
  0.         -4.301e-14 
  1.0000e-02  4.564e-06 
  2.0000e-02  9.036e-06 
  3.0000e-02  1.341e-05 
  4.0000e-02  1.768e-05 
  5.0000e-02  2.184e-05 
  6.0000e-02  2.589e-05 
  7.0000e-02  2.983e-05 
  8.0000e-02  3.365e-05 
  9.0000e-02  3.735e-05 
  0.1000      4.094e-05 
  0.1100      4.442e-05 
  0.1200      4.778e-05 
  0.1300      5.103e-05 
  0.1400      5.417e-05 
  0.1500      5.719e-05 
  0.1600      6.011e-05 
  0.1700      6.292e-05 
  0.1800      6.563e-05 
  0.1900      6.823e-05 
  0.2000      7.073e-05 
  0.2100      7.312e-05 
  0.2200      7.542e-05 
  0.2300      7.762e-05 
  0.2400      7.972e-05 
  0.2500      8.173e-05 
  0.2600      8.364e-05 
  0.2700      8.546e-05 
  0.2800      8.720e-05 
  0.2900      8.885e-05 
  0.3000      9.042e-05 
  0.3100      9.190e-05 
  0.3200      9.331e-05 
  0.3300      9.464e-05 
  0.3400      9.591e-05 
  0.3500      9.710e-05 
  0.3600      9.824e-05 
  0.3700      9.931e-05 
  0.3800      1.003e-04 
  0.3900      1.013e-04 
  0.4000      1.022e-04 
  0.4100      1.031e-04 
  0.4200      1.040e-04 
  0.4300      1.048e-04 
  0.4400      1.056e-04 
  0.4500      1.064e-04 
  0.4600      1.072e-04 
  0.4700      1.079e-04 
  0.4800      1.087e-04 
  0.4900      1.094e-04 
  0.5000      1.101e-04 
  0.5100      1.108e-04 
  0.5200      1.115e-04 
  0.5300      1.122e-04 
  0.5400      1.129e-04 
  0.5500      1.136e-04 
  0.5600      1.143e-04 
  0.5700      1.150e-04 
  0.5800      1.157e-04 
  0.5900      1.164e-04 
  0.6000      1.171e-04 
  0.6100      1.178e-04 
  0.6200      1.185e-04 
  0.6300      1.192e-04 
  0.6400      1.199e-04 
  0.6500      1.206e-04 
  0.6600      1.213e-04 
  0.6700      1.220e-04 
  0.6800      1.227e-04 
  0.6900      1.234e-04 
  0.7000      1.241e-04 
  0.7100      1.248e-04 
  0.7200      1.255e-04 
  0.7300      1.262e-04 
  0.7400      1.269e-04 
  0.7500      1.276e-04 
  0.7600      1.283e-04 
  0.7700      1.291e-04 
  0.7800      1.298e-04 
  0.7900      1.305e-04 
  0.8000      1.312e-04 
  0.8100      1.319e-04 
  0.8200      1.326e-04 
  0.8300      1.334e-04 
  0.8400      1.341e-04 
  0.8500      1.348e-04 
  0.8600      1.356e-04 
  0.8700      1.363e-04 
  0.8800      1.370e-04 
  0.8900      1.378e-04 
  0.9000      1.385e-04 
  0.9100      1.393e-04 
  0.9200      1.400e-04 
  0.9300      1.408e-04 
  0.9400      1.415e-04 
  0.9500      1.423e-04 
  0.9600      1.431e-04 
  0.9700      1.438e-04 
  0.9800      1.446e-04 
  0.9900      1.454e-04 
  1.0000      1.462e-04 
  1.0100      1.470e-04 
  1.0200      1.478e-04 
  1.0300      1.486e-04 
  1.0400      1.494e-04 
  1.0500      1.502e-04 
  1.0600      1.510e-04 
  1.0700      1.518e-04 
  1.0800      1.527e-04 
  1.0900      1.535e-04 
  1.1000      1.543e-04 
  1.1100      1.552e-04 
  1.1200      1.560e-04 
  1.1300      1.569e-04 
  1.1400      1.578e-04 
  1.1500      1.586e-04 
  1.1600      1.595e-04 
  1.1700      1.604e-04 
  1.1800      1.612e-04 
  1.1900      1.621e-04 
  1.2000      1.630e-04 
y
 ******
 *id-vd characteristics for nmos

 ****** dc transfer curves tnom=  25.000 temp=  25.000 ******
  *** parameter 0:vg  =   1.200       ***
  
x

 volt         current   
             x1.d       
  0.         -1.682e-13 
  1.0000e-02  5.528e-06 
  2.0000e-02  1.096e-05 
  3.0000e-02  1.629e-05 
  4.0000e-02  2.152e-05 
  5.0000e-02  2.663e-05 
  6.0000e-02  3.163e-05 
  7.0000e-02  3.651e-05 
  8.0000e-02  4.127e-05 
  9.0000e-02  4.591e-05 
  0.1000      5.043e-05 
  0.1100      5.484e-05 
  0.1200      5.913e-05 
  0.1300      6.330e-05 
  0.1400      6.735e-05 
  0.1500      7.129e-05 
  0.1600      7.512e-05 
  0.1700      7.884e-05 
  0.1800      8.244e-05 
  0.1900      8.594e-05 
  0.2000      8.932e-05 
  0.2100      9.260e-05 
  0.2200      9.578e-05 
  0.2300      9.884e-05 
  0.2400      1.018e-04 
  0.2500      1.047e-04 
  0.2600      1.074e-04 
  0.2700      1.101e-04 
  0.2800      1.127e-04 
  0.2900      1.151e-04 
  0.3000      1.175e-04 
  0.3100      1.198e-04 
  0.3200      1.219e-04 
  0.3300      1.240e-04 
  0.3400      1.260e-04 
  0.3500      1.279e-04 
  0.3600      1.297e-04 
  0.3700      1.315e-04 
  0.3800      1.331e-04 
  0.3900      1.347e-04 
  0.4000      1.362e-04 
  0.4100      1.376e-04 
  0.4200      1.390e-04 
  0.4300      1.402e-04 
  0.4400      1.414e-04 
  0.4500      1.426e-04 
  0.4600      1.437e-04 
  0.4700      1.448e-04 
  0.4800      1.458e-04 
  0.4900      1.467e-04 
  0.5000      1.477e-04 
  0.5100      1.486e-04 
  0.5200      1.494e-04 
  0.5300      1.503e-04 
  0.5400      1.511e-04 
  0.5500      1.519e-04 
  0.5600      1.527e-04 
  0.5700      1.535e-04 
  0.5800      1.543e-04 
  0.5900      1.550e-04 
  0.6000      1.558e-04 
  0.6100      1.565e-04 
  0.6200      1.573e-04 
  0.6300      1.580e-04 
  0.6400      1.587e-04 
  0.6500      1.595e-04 
  0.6600      1.602e-04 
  0.6700      1.609e-04 
  0.6800      1.617e-04 
  0.6900      1.624e-04 
  0.7000      1.632e-04 
  0.7100      1.639e-04 
  0.7200      1.646e-04 
  0.7300      1.654e-04 
  0.7400      1.661e-04 
  0.7500      1.669e-04 
  0.7600      1.677e-04 
  0.7700      1.684e-04 
  0.7800      1.692e-04 
  0.7900      1.699e-04 
  0.8000      1.707e-04 
  0.8100      1.715e-04 
  0.8200      1.723e-04 
  0.8300      1.731e-04 
  0.8400      1.738e-04 
  0.8500      1.746e-04 
  0.8600      1.754e-04 
  0.8700      1.762e-04 
  0.8800      1.770e-04 
  0.8900      1.778e-04 
  0.9000      1.786e-04 
  0.9100      1.795e-04 
  0.9200      1.803e-04 
  0.9300      1.811e-04 
  0.9400      1.819e-04 
  0.9500      1.828e-04 
  0.9600      1.836e-04 
  0.9700      1.845e-04 
  0.9800      1.853e-04 
  0.9900      1.862e-04 
  1.0000      1.870e-04 
  1.0100      1.879e-04 
  1.0200      1.888e-04 
  1.0300      1.897e-04 
  1.0400      1.906e-04 
  1.0500      1.915e-04 
  1.0600      1.924e-04 
  1.0700      1.933e-04 
  1.0800      1.942e-04 
  1.0900      1.951e-04 
  1.1000      1.960e-04 
  1.1100      1.969e-04 
  1.1200      1.979e-04 
  1.1300      1.988e-04 
  1.1400      1.997e-04 
  1.1500      2.007e-04 
  1.1600      2.017e-04 
  1.1700      2.026e-04 
  1.1800      2.036e-04 
  1.1900      2.046e-04 
  1.2000      2.055e-04 
y

          ***** job concluded
 ******  
 *id-vd characteristics for nmos

 ****** job statistics summary tnom=  25.000 temp=  25.000 ******
  
  
 ******  Machine Information  ******
 CPU:
 model name	: Intel(R) Xeon(R) CPU E5-2670 v2 @ 2.50GHz
 cpu MHz	: 2499.925
  
 OS:
 Linux version 2.6.32-696.6.3.el6.x86_64 (mockbuild@x86-042.build.eng.bos.redhat.com) (gcc version 4.4.7 20120313 (Red Hat 4.4.7-18) (GCC) ) #1 SMP Fri Jun 30 13:24:18 EDT 2017


  ******  HSPICE Threads Information  ******

  Command Line Threads Count :     1
  Available CPU Count        :    40
  Actual Threads Count       :     1


  ******  Circuit Statistics  ******
  # nodes       =      15 # elements   =       6
  # resistors   =       0 # capacitors =       0 # inductors   =       0
  # mutual_inds =       0 # vccs       =       0 # vcvs        =       0
  # cccs        =       0 # ccvs       =       0 # volt_srcs   =       5
  # curr_srcs   =       0 # diodes     =       0 # bjts        =       0
  # jfets       =       0 # mosfets    =       0 # U elements  =       0
  # T elements  =       0 # W elements =       0 # B elements  =       0
  # S elements  =       0 # P elements =       0 # va device   =       1
  # vector_srcs =       0 # N elements =       0


  ******  Runtime Statistics (seconds)  ******

  analysis           time    # points   tot. iter  conv.iter
  op point           0.00           1           0
  dc sweep           0.12        1331        2785
  readin             4.37
  errchk             0.03
  setup              0.00
  output             0.00


           peak memory used        225.71 megabytes
           total cpu time            4.52 seconds
           total elapsed time       17.04 seconds
           job started at     11:18:17 11/14/2017
           job ended   at     11:18:34 11/14/2017


 lic: Release hspice token(s) 
 lic: total license checkout elapse time:        0.28(s)
