 ****** HSPICE -- L-2016.03 linux64 (Feb 24 2016) ******                        
  Copyright (c) 1986 - 2017 by Synopsys, Inc. All Rights Reserved.              
  This software and the associated documentation are proprietary
  to Synopsys, Inc. This software may only be used in accordance
  with the terms and conditions of a written license agreement with
  Synopsys, Inc. All other use, reproduction, or distribution of
  this software is strictly prohibited.
  Input File: test2.sp                                                          
  Command line options: /tools/synopsys/hspice/L-2016.03/hspice/linux64/hspice -hdlpath ../code -i test2.sp -o test2
 lic:  
 lic: FLEXlm: v11.2.1 
 lic: USER:   huanlin              HOSTNAME: bwrcr720-5.eecs.berkeley.edu 
 lic: HOSTID: "c81f66efdbed"       PID:      48358 
 lic: Using FLEXlm license file: 
 lic: 1701@sunv40z-1.eecs.berkeley.edu 
 lic: Checkout 1 hspice 
 lic: License/Maintenance for hspice will expire on 19-dec-2017/2016.06 
 lic: 1(in_use)/50(total) FLOATING license(s) on SERVER 1701@sunv40z-1.eecs.berkeley.edu 
 lic:   
 **info** *pvaI* current limit stacksize=10485760, set new limit stacksize=62914560

 **info** *pvaI* Module (bsimsoi): 7 unexpanded port, 0 init, 4082 behav, 72 contrib, 39/3050 expr(s)

 **info** *pvaI*        Has DIS(DT PC), 2/48 afCount, 0 MT, dlg, 6 node(s) maybe reduced, IO(0/0/1/1)

 **info** *pvaI*        0 const-G and 0 const-C, Has switchBranch, 22 bypassOpt, 0 bus2scalar

 **warning** *pvaW*        variable 'VDSAT' initialized but not used in RHS, deleted (../code/bsimsoi.va:5983)

 **warning** *pvaW*        variable 'VTH' initialized but not used in RHS, deleted (../code/bsimsoi.va:5522)

 **warning** *pvaW*        variable 'IDS' initialized but not used in RHS, deleted (../code/bsimsoi.va:8105)

 **warning** *pvaW*        variable 'GM' initialized but not used in RHS, deleted (../code/bsimsoi.va:8106)

 **warning** *pvaW*        variable 'GDS' initialized but not used in RHS, deleted (../code/bsimsoi.va:8107)

 **warning** *pvaW*        variable 'GMBS' initialized but not used in RHS, deleted (../code/bsimsoi.va:8108)

 **warning** *pvaW*        variable 'IC' initialized but not used in RHS, deleted (../code/bsimsoi.va:8109)

 **warning** *pvaW*        variable 'IBD' initialized but not used in RHS, deleted (../code/bsimsoi.va:8111)

 **warning** *pvaW*        variable 'IBS' initialized but not used in RHS, deleted (../code/bsimsoi.va:8110)

 **warning** *pvaW*        variable 'IGIDL' initialized but not used in RHS, deleted (../code/bsimsoi.va:8112)

 **warning** *pvaW*        variable 'IGISL' initialized but not used in RHS, deleted (../code/bsimsoi.va:8113)

 **warning** *pvaW*        variable 'IGS' initialized but not used in RHS, deleted (../code/bsimsoi.va:8114)

 **warning** *pvaW*        variable 'IGD' initialized but not used in RHS, deleted (../code/bsimsoi.va:8115)

 **warning** *pvaW*        variable 'IGB' initialized but not used in RHS, deleted (../code/bsimsoi.va:8116)

 **warning** *pvaW*        variable 'IGCS' initialized but not used in RHS, deleted (../code/bsimsoi.va:8117)

 **warning** *pvaW*        variable 'IGCD' initialized but not used in RHS, deleted (../code/bsimsoi.va:8118)

 **warning** *pvaW*        variable 'CGG' initialized but not used in RHS, deleted (../code/bsimsoi.va:8129)

 **warning** *pvaW*        variable 'CGS' initialized but not used in RHS, deleted (../code/bsimsoi.va:8132)

 **warning** *pvaW*        variable 'CGD' initialized but not used in RHS, deleted (../code/bsimsoi.va:8133)

 **warning** *pvaW*        variable 'CBG' initialized but not used in RHS, deleted (../code/bsimsoi.va:8134)

 **warning** *pvaW*        variable 'CBS' initialized but not used in RHS, deleted (../code/bsimsoi.va:8136)

 **warning** *pvaW*        variable 'CBD' initialized but not used in RHS, deleted (../code/bsimsoi.va:8135)

 **warning** *pvaW*        variable 'CDG' initialized but not used in RHS, deleted (../code/bsimsoi.va:8137)

 **warning** *pvaW*        variable 'CDD' initialized but not used in RHS, deleted (../code/bsimsoi.va:8138)

 **warning** *pvaW*        variable 'CDS' initialized but not used in RHS, deleted (../code/bsimsoi.va:8139)

 **warning** *pvaW*        variable 'CAPBD' initialized but not used in RHS, deleted (../code/bsimsoi.va:8142)

 **warning** *pvaW*        variable 'CAPBS' initialized but not used in RHS, deleted (../code/bsimsoi.va:8143)

 **warning** *pvaW*        variable 'QS' initialized but not used in RHS, deleted (../code/bsimsoi.va:8124)

 **warning** *pvaW*        variable 'T_TOTAL_K' initialized but not used in RHS, deleted (../code/bsimsoi.va:4417)

 **warning** *pvaW*        variable 'T_TOTAL_C' initialized but not used in RHS, deleted (../code/bsimsoi.va:4418)

 **warning** *pvaW*        variable 'T_DELTA_SH' initialized but not used in RHS, deleted (../code/bsimsoi.va:4419)

 **info** *pvaI*        generated 5 flow node(s) during compilation.

 **info** *pvaI* #### Total 565 line-size(s), 39/3050 expr(s), 72 contr(s), 0 init(s), 4082 behav(s), 7 port(s)

 Loading pVA library test2.pvadir/pvaRTL_linux64.so...
1****** HSPICE -- L-2016.03 linux64 (Feb 24 2016) ******                        
 ******  
 *id-vd characteristics for nmos

 ****** circuit name directory
 circuit number to circuit name directory
   number circuitname                     definition         multiplier
        0 main circuit
        1 x1.                             bsimsoi(va)        1.00 
 **info** *pvaI* Creating VA module (bsimsoi) for instance X1

 **info** *pvaI* Module (bsimsoi): node 'db' shorted with port 'b' (../code/bsimsoi.va:8064)

 **info** *pvaI* Module (bsimsoi): node 'gi' shorted with port 'gm' (../code/bsimsoi.va:8045)

 **info** *pvaI* Module (bsimsoi): node 'gm' shorted with port 'g' (../code/bsimsoi.va:8037)

 **info** *pvaI* Module (bsimsoi): node 'sb' shorted with port 'b' (../code/bsimsoi.va:8065)

 **info** *pvaI*  4           nodes and 6 branches eliminated for module 'bsimsoi'

 **info** *pvaI*   3 port(s) not connected

 **info** *pvaI*        termCount=18 diwSize=368 probeSize=2287 Qsize=15 Isize=27

 End of GMD creation on Tue Nov 14 11:18:51 2017	GTM/In-use: 23.5000/21.1809 MB


  
      
 *****************************************************************
 ******  option summary
 ******
 runlvl  = 3         bypass  = 2.0000    
  Opening plot unit= 15
 file=test2.pa0

 ******
 *id-vd characteristics for nmos

 ****** dc transfer curves tnom=  25.000 temp=  25.000 ******
  *** parameter 0:vg  =   0.              ***
  
x

 volt         current   
             vd         
  0.          0.        
  2.0000e-02 -9.592e-14 
  4.0000e-02 -1.563e-13 
  6.0000e-02 -2.061e-13 
  8.0000e-02 -2.274e-13 
  0.1000     -2.700e-13 
  0.1200     -2.842e-13 
  0.1400     -3.126e-13 
  0.1600     -3.695e-13 
  0.1800     -3.979e-13 
  0.2000     -4.263e-13 
  0.2200     -4.547e-13 
  0.2400     -5.116e-13 
  0.2600     -6.821e-13 
  0.2800     -6.253e-13 
  0.3000     -6.253e-13 
  0.3200     -7.390e-13 
  0.3400     -7.958e-13 
  0.3600     -7.958e-13 
  0.3800     -9.663e-13 
  0.4000     -1.023e-12 
  0.4200     -1.080e-12 
  0.4400     -1.137e-12 
  0.4600     -1.194e-12 
  0.4800     -1.307e-12 
  0.5000     -1.421e-12 
  0.5200     -1.705e-12 
  0.5400     -1.705e-12 
  0.5600     -1.933e-12 
  0.5800     -2.046e-12 
  0.6000     -2.160e-12 
  0.6200     -2.501e-12 
  0.6400     -2.387e-12 
  0.6600     -2.615e-12 
  0.6800     -2.728e-12 
  0.7000     -2.956e-12 
  0.7200     -3.297e-12 
  0.7400     -3.524e-12 
  0.7600     -3.865e-12 
  0.7800     -4.206e-12 
  0.8000     -4.320e-12 
  0.8200     -4.661e-12 
  0.8400     -5.116e-12 
  0.8600     -5.571e-12 
  0.8800     -6.139e-12 
  0.9000     -6.253e-12 
  0.9200     -6.708e-12 
  0.9400     -7.276e-12 
  0.9600     -7.731e-12 
  0.9800     -8.299e-12 
  1.0000     -8.868e-12 
  1.0200     -9.550e-12 
  1.0400     -1.023e-11 
  1.0600     -1.091e-11 
  1.0800     -1.160e-11 
  1.1000     -1.228e-11 
  1.1200     -1.342e-11 
  1.1400     -1.410e-11 
  1.1600     -1.501e-11 
  1.1800     -1.614e-11 
  1.2000     -1.705e-11 
  1.2200     -1.774e-11 
  1.2400     -1.933e-11 
  1.2600     -2.069e-11 
  1.2800     -2.206e-11 
  1.3000     -2.319e-11 
  1.3200     -2.456e-11 
  1.3400     -2.660e-11 
  1.3600     -2.819e-11 
  1.3800     -3.001e-11 
  1.4000     -3.183e-11 
  1.4200     -3.342e-11 
  1.4400     -3.570e-11 
  1.4600     -3.797e-11 
  1.4800     -4.047e-11 
  1.5000     -4.275e-11 
y
 ******
 *id-vd characteristics for nmos

 ****** dc transfer curves tnom=  25.000 temp=  25.000 ******
  *** parameter 0:vg  =   0.500       ***
  
x

 volt         current   
             vd         
  0.          3.045e-17 
  2.0000e-02 -2.457e-08 
  4.0000e-02 -4.054e-08 
  6.0000e-02 -5.005e-08 
  8.0000e-02 -5.636e-08 
  0.1000     -6.152e-08 
  0.1200     -6.638e-08 
  0.1400     -7.125e-08 
  0.1600     -7.628e-08 
  0.1800     -8.154e-08 
  0.2000     -8.705e-08 
  0.2200     -9.284e-08 
  0.2400     -9.893e-08 
  0.2600     -1.053e-07 
  0.2800     -1.120e-07 
  0.3000     -1.191e-07 
  0.3200     -1.265e-07 
  0.3400     -1.342e-07 
  0.3600     -1.423e-07 
  0.3800     -1.508e-07 
  0.4000     -1.596e-07 
  0.4200     -1.688e-07 
  0.4400     -1.784e-07 
  0.4600     -1.884e-07 
  0.4800     -1.988e-07 
  0.5000     -2.096e-07 
  0.5200     -2.208e-07 
  0.5400     -2.324e-07 
  0.5600     -2.445e-07 
  0.5800     -2.569e-07 
  0.6000     -2.699e-07 
  0.6200     -2.832e-07 
  0.6400     -2.970e-07 
  0.6600     -3.112e-07 
  0.6800     -3.259e-07 
  0.7000     -3.411e-07 
  0.7200     -3.567e-07 
  0.7400     -3.727e-07 
  0.7600     -3.892e-07 
  0.7800     -4.062e-07 
  0.8000     -4.237e-07 
  0.8200     -4.416e-07 
  0.8400     -4.600e-07 
  0.8600     -4.788e-07 
  0.8800     -4.982e-07 
  0.9000     -5.180e-07 
  0.9200     -5.383e-07 
  0.9400     -5.592e-07 
  0.9600     -5.805e-07 
  0.9800     -6.024e-07 
  1.0000     -6.249e-07 
  1.0200     -6.479e-07 
  1.0400     -6.715e-07 
  1.0600     -6.957e-07 
  1.0800     -7.206e-07 
  1.1000     -7.462e-07 
  1.1200     -7.726e-07 
  1.1400     -7.999e-07 
  1.1600     -8.280e-07 
  1.1800     -8.572e-07 
  1.2000     -8.875e-07 
  1.2200     -9.190e-07 
  1.2400     -9.519e-07 
  1.2600     -9.864e-07 
  1.2800     -1.023e-06 
  1.3000     -1.061e-06 
  1.3200     -1.102e-06 
  1.3400     -1.145e-06 
  1.3600     -1.191e-06 
  1.3800     -1.240e-06 
  1.4000     -1.293e-06 
  1.4200     -1.350e-06 
  1.4400     -1.411e-06 
  1.4600     -1.477e-06 
  1.4800     -1.549e-06 
  1.5000     -1.626e-06 
y
 ******
 *id-vd characteristics for nmos

 ****** dc transfer curves tnom=  25.000 temp=  25.000 ******
  *** parameter 0:vg  =   1.000       ***
  
x

 volt         current   
             vd         
  0.          8.916e-15 
  2.0000e-02 -6.817e-06 
  4.0000e-02 -1.326e-05 
  6.0000e-02 -1.930e-05 
  8.0000e-02 -2.492e-05 
  0.1000     -3.011e-05 
  0.1200     -3.488e-05 
  0.1400     -3.924e-05 
  0.1600     -4.322e-05 
  0.1800     -4.682e-05 
  0.2000     -5.006e-05 
  0.2200     -5.298e-05 
  0.2400     -5.559e-05 
  0.2600     -5.792e-05 
  0.2800     -5.999e-05 
  0.3000     -6.185e-05 
  0.3200     -6.352e-05 
  0.3400     -6.505e-05 
  0.3600     -6.648e-05 
  0.3800     -6.782e-05 
  0.4000     -6.911e-05 
  0.4200     -7.037e-05 
  0.4400     -7.160e-05 
  0.4600     -7.282e-05 
  0.4800     -7.402e-05 
  0.5000     -7.522e-05 
  0.5200     -7.641e-05 
  0.5400     -7.759e-05 
  0.5600     -7.877e-05 
  0.5800     -7.995e-05 
  0.6000     -8.112e-05 
  0.6200     -8.230e-05 
  0.6400     -8.347e-05 
  0.6600     -8.465e-05 
  0.6800     -8.583e-05 
  0.7000     -8.701e-05 
  0.7200     -8.819e-05 
  0.7400     -8.937e-05 
  0.7600     -9.056e-05 
  0.7800     -9.176e-05 
  0.8000     -9.297e-05 
  0.8200     -9.418e-05 
  0.8400     -9.540e-05 
  0.8600     -9.663e-05 
  0.8800     -9.788e-05 
  0.9000     -9.913e-05 
  0.9200     -1.004e-04 
  0.9400     -1.017e-04 
  0.9600     -1.030e-04 
  0.9800     -1.043e-04 
  1.0000     -1.057e-04 
  1.0200     -1.070e-04 
  1.0400     -1.084e-04 
  1.0600     -1.098e-04 
  1.0800     -1.112e-04 
  1.1000     -1.127e-04 
  1.1200     -1.141e-04 
  1.1400     -1.156e-04 
  1.1600     -1.171e-04 
  1.1800     -1.187e-04 
  1.2000     -1.202e-04 
  1.2200     -1.218e-04 
  1.2400     -1.234e-04 
  1.2600     -1.250e-04 
  1.2800     -1.266e-04 
  1.3000     -1.282e-04 
  1.3200     -1.299e-04 
  1.3400     -1.315e-04 
  1.3600     -1.332e-04 
  1.3800     -1.349e-04 
  1.4000     -1.366e-04 
  1.4200     -1.383e-04 
  1.4400     -1.401e-04 
  1.4600     -1.418e-04 
  1.4800     -1.436e-04 
  1.5000     -1.454e-04 
y
 ******
 *id-vd characteristics for nmos

 ****** dc transfer curves tnom=  25.000 temp=  25.000 ******
  *** parameter 0:vg  =   1.500       ***
  
x

 volt         current   
             vd         
  0.          3.022e-12 
  2.0000e-02 -1.544e-05 
  4.0000e-02 -3.046e-05 
  6.0000e-02 -4.503e-05 
  8.0000e-02 -5.912e-05 
  0.1000     -7.272e-05 
  0.1200     -8.585e-05 
  0.1400     -9.849e-05 
  0.1600     -1.107e-04 
  0.1800     -1.224e-04 
  0.2000     -1.337e-04 
  0.2200     -1.445e-04 
  0.2400     -1.549e-04 
  0.2600     -1.649e-04 
  0.2800     -1.744e-04 
  0.3000     -1.836e-04 
  0.3200     -1.923e-04 
  0.3400     -2.006e-04 
  0.3600     -2.085e-04 
  0.3800     -2.161e-04 
  0.4000     -2.232e-04 
  0.4200     -2.300e-04 
  0.4400     -2.364e-04 
  0.4600     -2.425e-04 
  0.4800     -2.482e-04 
  0.5000     -2.535e-04 
  0.5200     -2.585e-04 
  0.5400     -2.632e-04 
  0.5600     -2.676e-04 
  0.5800     -2.716e-04 
  0.6000     -2.754e-04 
  0.6200     -2.788e-04 
  0.6400     -2.820e-04 
  0.6600     -2.850e-04 
  0.6800     -2.878e-04 
  0.7000     -2.903e-04 
  0.7200     -2.927e-04 
  0.7400     -2.950e-04 
  0.7600     -2.971e-04 
  0.7800     -2.991e-04 
  0.8000     -3.010e-04 
  0.8200     -3.029e-04 
  0.8400     -3.047e-04 
  0.8600     -3.064e-04 
  0.8800     -3.082e-04 
  0.9000     -3.098e-04 
  0.9200     -3.115e-04 
  0.9400     -3.132e-04 
  0.9600     -3.148e-04 
  0.9800     -3.165e-04 
  1.0000     -3.182e-04 
  1.0200     -3.199e-04 
  1.0400     -3.216e-04 
  1.0600     -3.233e-04 
  1.0800     -3.251e-04 
  1.1000     -3.270e-04 
  1.1200     -3.289e-04 
  1.1400     -3.308e-04 
  1.1600     -3.328e-04 
  1.1800     -3.348e-04 
  1.2000     -3.369e-04 
  1.2200     -3.391e-04 
  1.2400     -3.413e-04 
  1.2600     -3.435e-04 
  1.2800     -3.458e-04 
  1.3000     -3.481e-04 
  1.3200     -3.504e-04 
  1.3400     -3.528e-04 
  1.3600     -3.553e-04 
  1.3800     -3.577e-04 
  1.4000     -3.602e-04 
  1.4200     -3.627e-04 
  1.4400     -3.652e-04 
  1.4600     -3.677e-04 
  1.4800     -3.703e-04 
  1.5000     -3.728e-04 
y

          ***** job concluded
 ******  
 *id-vd characteristics for nmos

 ****** job statistics summary tnom=  25.000 temp=  25.000 ******
  
  
 ******  Machine Information  ******
 CPU:
 model name	: Intel(R) Xeon(R) CPU E5-2670 v2 @ 2.50GHz
 cpu MHz	: 2499.925
  
 OS:
 Linux version 2.6.32-696.6.3.el6.x86_64 (mockbuild@x86-042.build.eng.bos.redhat.com) (gcc version 4.4.7 20120313 (Red Hat 4.4.7-18) (GCC) ) #1 SMP Fri Jun 30 13:24:18 EDT 2017


  ******  HSPICE Threads Information  ******

  Command Line Threads Count :     1
  Available CPU Count        :    40
  Actual Threads Count       :     1


  ******  Circuit Statistics  ******
  # nodes       =      14 # elements   =       5
  # resistors   =       0 # capacitors =       0 # inductors   =       0
  # mutual_inds =       0 # vccs       =       0 # vcvs        =       0
  # cccs        =       0 # ccvs       =       0 # volt_srcs   =       4
  # curr_srcs   =       0 # diodes     =       0 # bjts        =       0
  # jfets       =       0 # mosfets    =       0 # U elements  =       0
  # T elements  =       0 # W elements =       0 # B elements  =       0
  # S elements  =       0 # P elements =       0 # va device   =       1
  # vector_srcs =       0 # N elements =       0


  ******  Runtime Statistics (seconds)  ******

  analysis           time    # points   tot. iter  conv.iter
  op point           0.00           1           0
  dc sweep           0.04         304         740
  readin             4.23
  errchk             0.02
  setup              0.00
  output             0.00


           peak memory used        225.71 megabytes
           total cpu time            4.29 seconds
           total elapsed time       16.22 seconds
           job started at     11:18:35 11/14/2017
           job ended   at     11:18:51 11/14/2017


 lic: Release hspice token(s) 
 lic: total license checkout elapse time:        0.24(s)
