 ****** HSPICE -- G-2012.06 32-BIT (May 27 2012) RHEL32 ******                  
  Copyright (C) 2012 Synopsys, Inc. All Rights Reserved.                        
  Unpublished-rights reserved under US copyright laws.
  This program is protected by law and is subject to the
  terms and conditions of the license agreement from Synopsys.
  Use of this program is your acceptance to be bound by the
  license agreement. HSPICE is the trademark of Synopsys, Inc.
  Input File: gummel_nmos.sp                                                    
  Command line options: -hdlpath ../code -i gummel_nmos.sp -o gummel_nmos
 lic:  
 lic: FLEXlm: v10.8 
 lic: USER:   sourabh              HOSTNAME: bwrcrdsl-3.eecs.berkeley.edu 
 lic: HOSTID:                      PID:      23961 
 lic: Using FLEXlm license file: 
 lic: 1701@sunv40z-1.eecs.berkeley.edu 
 lic: Checkout 1 hspice 
 lic: License/Maintenance for hspice will expire on 19-dec-2015/2014.09 
 lic: 1(in_use)/50(total) FLOATING license(s) on SERVER sunv40z-1.eecs.berkeley.
 lic:   
 Init: read install configuration file: /tools/synopsys/hspice/G-2012.06/hspice/meta.cfg
 **info** *pvaI* Module (bsim6): 4 unexpanded port, 0 init, 2615 behav, 63 contrib, 58/2705 expr(s)

 **info** *pvaI* Resizing DB size for v count = 1

 **info** *pvaI*        Has DIS (DT ST SB), 3 afCount

 **info** *pvaI*        0 const-G and 0 const-C, Has switch branch.

 **info** *pvaI* Module (bsim6): generated 7 flow node(s) during compilation.

 **info** *pvaI* #### Total 519 line-size(s), 58 expr(s), 63 contr(s), 0 init(s), 2615 behav(s), 4 port(s)

 Loading pVA library gummel_nmos.pvadir/pvaRTL_linux.so...
1****** HSPICE -- G-2012.06 32-BIT (May 27 2012) RHEL32 ******                  
 ******  
 *sample netlist for bsim6

  ******  circuit name directory
 circuit number to circuit name directory
   number circuitname                     definition         multiplier
        0 main circuit
        1 x1.                             bsim6(va)          1.00 
 **info** *pvaI* Creating Verilog-A module 'bsim6' for X1

  
      
 *****************************************************************
 ******  option summary
 ******
 runlvl  = 3         bypass  = 2         
  Opening plot unit= 15
 file=gummel_nmos.pa0                                                          

 ******  
 *sample netlist for bsim6

  ******  dc transfer curves tnom=  25.000 temp=  25.000 *****

   *** source        0:vgate =    0.            ***

x

        volt    param        param        param        param      
                    ids          gx           gx2          gx3    
   -0.10000    -2.242e-07      0.           0.           0.       
 -9.9000e-02   -2.173e-07   -2.242e-04      0.           0.       
 -9.8000e-02   -2.106e-07    6.902e-06     -0.2242       0.       
 -9.7000e-02   -2.040e-07    6.711e-06      0.2311    -224.1843   
 -9.6000e-02   -1.977e-07    6.524e-06   -1.913e-04    455.2709   
 -9.5000e-02   -1.915e-07    6.341e-06   -1.871e-04   -231.2779   
 -9.4000e-02   -1.856e-07    6.162e-06   -1.831e-04    4.178e-03  
 -9.3000e-02   -1.797e-07    5.987e-06   -1.789e-04    4.050e-03  
 -9.2000e-02   -1.741e-07    5.816e-06   -1.749e-04    4.164e-03  
 -9.1000e-02   -1.686e-07    5.649e-06   -1.708e-04    4.007e-03  
 -9.0000e-02   -1.633e-07    5.486e-06   -1.669e-04    4.064e-03  
 -8.9000e-02   -1.581e-07    5.327e-06   -1.629e-04    3.922e-03  
 -8.8000e-02   -1.531e-07    5.172e-06   -1.590e-04    4.007e-03  
 -8.7000e-02   -1.482e-07    5.021e-06   -1.551e-04    3.880e-03  
 -8.6000e-02   -1.435e-07    4.873e-06   -1.513e-04    3.880e-03  
 -8.5000e-02   -1.389e-07    4.730e-06   -1.476e-04    3.837e-03  
 -8.4000e-02   -1.344e-07    4.589e-06   -1.438e-04    3.737e-03  
 -8.3000e-02   -1.301e-07    4.453e-06   -1.401e-04    3.780e-03  
 -8.2000e-02   -1.259e-07    4.320e-06   -1.364e-04    3.638e-03  
 -8.1000e-02   -1.219e-07    4.191e-06   -1.329e-04    3.709e-03  
 -8.0000e-02   -1.179e-07    4.065e-06   -1.294e-04    3.510e-03  
 -7.9000e-02   -1.141e-07    3.942e-06   -1.259e-04    3.567e-03  
 -7.8000e-02   -1.104e-07    3.823e-06   -1.225e-04    3.482e-03  
 -7.7000e-02   -1.068e-07    3.707e-06   -1.191e-04    3.396e-03  
 -7.6000e-02   -1.033e-07    3.595e-06   -1.158e-04    3.411e-03  
 -7.5000e-02   -9.993e-08    3.485e-06   -1.126e-04    3.268e-03  
 -7.4000e-02   -9.666e-08    3.379e-06   -1.094e-04    3.226e-03  
 -7.3000e-02   -9.348e-08    3.276e-06   -1.062e-04    3.212e-03  
 -7.2000e-02   -9.040e-08    3.176e-06   -1.032e-04    3.126e-03  
 -7.1000e-02   -8.742e-08    3.078e-06   -1.002e-04    3.013e-03  
 -7.0000e-02   -8.453e-08    2.984e-06   -9.730e-05    3.055e-03  
 -6.9000e-02   -8.172e-08    2.892e-06   -9.443e-05    2.871e-03  
 -6.8000e-02   -7.901e-08    2.804e-06   -9.165e-05    2.871e-03  
 -6.7000e-02   -7.637e-08    2.717e-06   -8.889e-05    2.785e-03  
 -6.6000e-02   -7.382e-08    2.634e-06   -8.627e-05    2.757e-03  
 -6.5000e-02   -7.135e-08    2.552e-06   -8.363e-05    2.615e-03  
 -6.4000e-02   -6.895e-08    2.474e-06   -8.114e-05    2.643e-03  
 -6.3000e-02   -6.662e-08    2.398e-06   -7.863e-05    2.487e-03  
 -6.2000e-02   -6.437e-08    2.324e-06   -7.627e-05    2.515e-03  
 -6.1000e-02   -6.219e-08    2.252e-06   -7.389e-05    2.359e-03  
 -6.0000e-02   -6.007e-08    2.183e-06   -7.164e-05    2.380e-03  
 -5.9000e-02   -5.802e-08    2.115e-06   -6.943e-05    2.252e-03  
 -5.8000e-02   -5.604e-08    2.050e-06   -6.725e-05    2.203e-03  
 -5.7000e-02   -5.411e-08    1.987e-06   -6.514e-05    2.188e-03  
 -5.6000e-02   -5.224e-08    1.926e-06   -6.311e-05    2.103e-03  
 -5.5000e-02   -5.043e-08    1.867e-06   -6.114e-05    2.032e-03  
 -5.4000e-02   -4.868e-08    1.810e-06   -5.917e-05    1.975e-03  
 -5.3000e-02   -4.698e-08    1.754e-06   -5.730e-05    1.961e-03  
 -5.2000e-02   -4.533e-08    1.700e-06   -5.546e-05    1.876e-03  
 -5.1000e-02   -4.373e-08    1.648e-06   -5.371e-05    1.833e-03  
 -5.0000e-02   -4.218e-08    1.598e-06   -5.193e-05    1.755e-03  
 -4.9000e-02   -4.068e-08    1.550e-06   -5.026e-05    1.783e-03  
 -4.8000e-02   -3.922e-08    1.503e-06   -4.865e-05    1.663e-03  
 -4.7000e-02   -3.781e-08    1.457e-06   -4.699e-05    1.613e-03  
 -4.6000e-02   -3.644e-08    1.413e-06   -4.548e-05    1.663e-03  
 -4.5000e-02   -3.511e-08    1.371e-06   -4.394e-05    1.506e-03  
 -4.4000e-02   -3.382e-08    1.330e-06   -4.248e-05    1.542e-03  
 -4.3000e-02   -3.257e-08    1.290e-06   -4.104e-05    1.457e-03  
 -4.2000e-02   -3.136e-08    1.252e-06   -3.963e-05    1.442e-03  
 -4.1000e-02   -3.018e-08    1.215e-06   -3.828e-05    1.407e-03  
 -4.0000e-02   -2.903e-08    1.179e-06   -3.696e-05    1.357e-03  
 -3.9000e-02   -2.792e-08    1.145e-06   -3.566e-05    1.322e-03  
 -3.8000e-02   -2.684e-08    1.111e-06   -3.440e-05    1.300e-03  
 -3.7000e-02   -2.579e-08    1.080e-06   -3.316e-05    1.258e-03  
 -3.6000e-02   -2.477e-08    1.049e-06   -3.195e-05    1.236e-03  
 -3.5000e-02   -2.378e-08    1.019e-06   -3.082e-05    1.208e-03  
 -3.4000e-02   -2.282e-08    9.905e-07   -2.964e-05    1.130e-03  
 -3.3000e-02   -2.188e-08    9.631e-07   -2.854e-05    1.187e-03  
 -3.2000e-02   -2.097e-08    9.367e-07   -2.746e-05    1.094e-03  
 -3.1000e-02   -2.008e-08    9.113e-07   -2.641e-05    1.087e-03  
 -3.0000e-02   -1.922e-08    8.870e-07   -2.534e-05    1.044e-03  
 -2.9000e-02   -1.838e-08    8.636e-07   -2.436e-05    1.073e-03  
 -2.8000e-02   -1.756e-08    8.412e-07   -2.336e-05    9.805e-04  
 -2.7000e-02   -1.676e-08    8.198e-07   -2.240e-05    9.983e-04  
 -2.6000e-02   -1.598e-08    7.993e-07   -2.145e-05    9.628e-04  
 -2.5000e-02   -1.522e-08    7.796e-07   -2.052e-05    9.486e-04  
 -2.4000e-02   -1.448e-08    7.609e-07   -1.962e-05    9.308e-04  
 -2.3000e-02   -1.375e-08    7.430e-07   -1.873e-05    8.953e-04  
 -2.2000e-02   -1.304e-08    7.260e-07   -1.787e-05    8.882e-04  
 -2.1000e-02   -1.235e-08    7.098e-07   -1.701e-05    8.598e-04  
 -2.0000e-02   -1.167e-08    6.944e-07   -1.619e-05    8.598e-04  
 -1.9000e-02   -1.100e-08    6.799e-07   -1.538e-05    8.278e-04  
 -1.8000e-02   -1.035e-08    6.661e-07   -1.457e-05    8.100e-04  
 -1.7000e-02   -9.707e-09    6.531e-07   -1.378e-05    8.029e-04  
 -1.6000e-02   -9.077e-09    6.408e-07   -1.301e-05    7.887e-04  
 -1.5000e-02   -8.459e-09    6.293e-07   -1.226e-05    7.709e-04  
 -1.4000e-02   -7.850e-09    6.185e-07   -1.150e-05    7.567e-04  
 -1.3000e-02   -7.251e-09    6.085e-07   -1.078e-05    7.550e-04  
 -1.2000e-02   -6.661e-09    5.992e-07   -1.005e-05    7.230e-04  
 -1.1000e-02   -6.078e-09    5.905e-07   -9.329e-06    7.336e-04  
 -1.0000e-02   -5.503e-09    5.826e-07   -8.631e-06    7.159e-04  
 -9.0000e-03   -4.934e-09    5.754e-07   -7.928e-06    6.981e-04  
 -8.0000e-03   -4.371e-09    5.688e-07   -7.242e-06    7.034e-04  
 -7.0000e-03   -3.813e-09    5.629e-07   -6.557e-06    6.857e-04  
 -6.0000e-03   -3.260e-09    5.577e-07   -5.884e-06    6.857e-04  
 -5.0000e-03   -2.711e-09    5.532e-07   -5.218e-06    6.724e-04  
 -4.0000e-03   -2.165e-09    5.493e-07   -4.550e-06    6.661e-04  
 -3.0000e-03   -1.621e-09    5.460e-07   -3.893e-06    6.679e-04  
 -2.0000e-03   -1.080e-09    5.434e-07   -3.238e-06    6.573e-04  
 -1.0000e-03   -5.396e-10    5.415e-07   -2.587e-06    6.550e-04  
    0.         -1.053e-24    5.402e-07   -1.936e-06    6.506e-04  
  1.0000e-03    5.396e-10    5.396e-07   -1.291e-06    6.510e-04  
  2.0000e-03    1.080e-09    5.396e-07   -6.446e-07    6.454e-04  
  3.0000e-03    1.623e-09    5.408e-07    7.849e-08    6.463e-04  
  4.0000e-03    2.170e-09    5.430e-07    1.118e-06    7.231e-04  
  5.0000e-03    2.720e-09    5.462e-07    2.214e-06    1.040e-03  
  6.0000e-03    3.275e-09    5.503e-07    3.230e-06    1.096e-03  
  7.0000e-03    3.835e-09    5.550e-07    4.079e-06    1.016e-03  
  8.0000e-03    4.400e-09    5.601e-07    4.697e-06    8.487e-04  
  9.0000e-03    4.971e-09    5.654e-07    5.095e-06    6.182e-04  
  1.0000e-02    5.548e-09    5.709e-07    5.325e-06    3.983e-04  
  1.1000e-02    6.131e-09    5.767e-07    5.515e-06    2.292e-04  
  1.2000e-02    6.720e-09    5.828e-07    5.754e-06    1.901e-04  
  1.3000e-02    7.317e-09    5.894e-07    6.121e-06    2.389e-04  
  1.4000e-02    7.921e-09    5.966e-07    6.608e-06    3.677e-04  
  1.5000e-02    8.534e-09    6.045e-07    7.223e-06    4.867e-04  
  1.6000e-02    9.157e-09    6.132e-07    7.915e-06    6.146e-04  
  1.7000e-02    9.790e-09    6.226e-07    8.663e-06    6.928e-04  
  1.8000e-02    1.043e-08    6.329e-07    9.448e-06    7.478e-04  
  1.9000e-02    1.109e-08    6.439e-07    1.025e-05    7.851e-04  
  2.0000e-02    1.176e-08    6.558e-07    1.105e-05    7.994e-04  
  2.1000e-02    1.244e-08    6.685e-07    1.188e-05    8.047e-04  
  2.2000e-02    1.314e-08    6.820e-07    1.269e-05    8.278e-04  
  2.3000e-02    1.385e-08    6.964e-07    1.351e-05    8.136e-04  
  2.4000e-02    1.458e-08    7.116e-07    1.436e-05    8.136e-04  
  2.5000e-02    1.532e-08    7.276e-07    1.517e-05    8.491e-04  
  2.6000e-02    1.608e-08    7.445e-07    1.603e-05    8.171e-04  
  2.7000e-02    1.686e-08    7.622e-07    1.688e-05    8.598e-04  
  2.8000e-02    1.766e-08    7.809e-07    1.776e-05    8.455e-04  
  2.9000e-02    1.848e-08    8.004e-07    1.864e-05    8.811e-04  
  3.0000e-02    1.933e-08    8.209e-07    1.954e-05    8.811e-04  
  3.1000e-02    2.019e-08    8.423e-07    2.045e-05    8.953e-04  
  3.2000e-02    2.108e-08    8.646e-07    2.139e-05    9.166e-04  
  3.3000e-02    2.199e-08    8.879e-07    2.234e-05    9.379e-04  
  3.4000e-02    2.293e-08    9.122e-07    2.332e-05    9.486e-04  
  3.5000e-02    2.389e-08    9.375e-07    2.431e-05    9.841e-04  
  3.6000e-02    2.488e-08    9.639e-07    2.532e-05    9.841e-04  
  3.7000e-02    2.590e-08    9.913e-07    2.637e-05    1.016e-03  
  3.8000e-02    2.695e-08    1.020e-06    2.743e-05    1.044e-03  
  3.9000e-02    2.803e-08    1.050e-06    2.853e-05    1.066e-03  
  4.0000e-02    2.915e-08    1.080e-06    2.964e-05    1.094e-03  
  4.1000e-02    3.029e-08    1.112e-06    3.078e-05    1.108e-03  
  4.2000e-02    3.147e-08    1.145e-06    3.195e-05    1.144e-03  
  4.3000e-02    3.269e-08    1.180e-06    3.317e-05    1.165e-03  
  4.4000e-02    3.394e-08    1.215e-06    3.437e-05    1.222e-03  
  4.5000e-02    3.523e-08    1.252e-06    3.566e-05    1.201e-03  
  4.6000e-02    3.656e-08    1.291e-06    3.692e-05    1.293e-03  
  4.7000e-02    3.793e-08    1.330e-06    3.828e-05    1.258e-03  
  4.8000e-02    3.935e-08    1.371e-06    3.963e-05    1.364e-03  
  4.9000e-02    4.080e-08    1.414e-06    4.103e-05    1.350e-03  
  5.0000e-02    4.231e-08    1.458e-06    4.250e-05    1.393e-03  
  5.1000e-02    4.386e-08    1.503e-06    4.393e-05    1.471e-03  
  5.2000e-02    4.546e-08    1.550e-06    4.546e-05    1.428e-03  
  5.3000e-02    4.710e-08    1.599e-06    4.703e-05    1.535e-03  
  5.4000e-02    4.881e-08    1.649e-06    4.862e-05    1.570e-03  
  5.5000e-02    5.056e-08    1.701e-06    5.025e-05    1.592e-03  
  5.6000e-02    5.237e-08    1.755e-06    5.195e-05    1.627e-03  
  5.7000e-02    5.424e-08    1.810e-06    5.370e-05    1.705e-03  
  5.8000e-02    5.616e-08    1.868e-06    5.546e-05    1.741e-03  
  5.9000e-02    5.815e-08    1.927e-06    5.731e-05    1.762e-03  
  6.0000e-02    6.020e-08    1.988e-06    5.918e-05    1.847e-03  
  6.1000e-02    6.232e-08    2.051e-06    6.112e-05    1.876e-03  
  6.2000e-02    6.450e-08    2.116e-06    6.310e-05    1.940e-03  
  6.3000e-02    6.676e-08    2.183e-06    6.516e-05    1.982e-03  
  6.4000e-02    6.908e-08    2.253e-06    6.727e-05    2.061e-03  
  6.5000e-02    7.148e-08    2.324e-06    6.939e-05    2.103e-03  
  6.6000e-02    7.395e-08    2.398e-06    7.164e-05    2.125e-03  
  6.7000e-02    7.651e-08    2.475e-06    7.391e-05    2.252e-03  
  6.8000e-02    7.914e-08    2.553e-06    7.626e-05    2.267e-03  
  6.9000e-02    8.186e-08    2.634e-06    7.864e-05    2.352e-03  
  7.0000e-02    8.466e-08    2.718e-06    8.113e-05    2.380e-03  
  7.1000e-02    8.756e-08    2.804e-06    8.365e-05    2.487e-03  
  7.2000e-02    9.054e-08    2.893e-06    8.625e-05    2.515e-03  
  7.3000e-02    9.362e-08    2.985e-06    8.893e-05    2.601e-03  
  7.4000e-02    9.680e-08    3.079e-06    9.162e-05    2.686e-03  
  7.5000e-02    1.001e-07    3.176e-06    9.445e-05    2.686e-03  
  7.6000e-02    1.035e-07    3.277e-06    9.727e-05    2.828e-03  
  7.7000e-02    1.069e-07    3.380e-06    1.002e-04    2.828e-03  
  7.8000e-02    1.105e-07    3.486e-06    1.032e-04    2.970e-03  
  7.9000e-02    1.142e-07    3.596e-06    1.063e-04    2.942e-03  
  8.0000e-02    1.181e-07    3.708e-06    1.094e-04    3.070e-03  
  8.1000e-02    1.220e-07    3.824e-06    1.125e-04    3.141e-03  
  8.2000e-02    1.261e-07    3.943e-06    1.158e-04    3.155e-03  
  8.3000e-02    1.303e-07    4.065e-06    1.191e-04    3.226e-03  
  8.4000e-02    1.346e-07    4.191e-06    1.225e-04    3.340e-03  
  8.5000e-02    1.390e-07    4.321e-06    1.259e-04    3.368e-03  
  8.6000e-02    1.436e-07    4.454e-06    1.294e-04    3.396e-03  
  8.7000e-02    1.484e-07    4.590e-06    1.329e-04    3.496e-03  
  8.8000e-02    1.532e-07    4.730e-06    1.365e-04    3.524e-03  
  8.9000e-02    1.583e-07    4.874e-06    1.401e-04    3.567e-03  
  9.0000e-02    1.634e-07    5.022e-06    1.438e-04    3.652e-03  
  9.1000e-02    1.688e-07    5.173e-06    1.476e-04    3.695e-03  
  9.2000e-02    1.742e-07    5.328e-06    1.513e-04    3.752e-03  
  9.3000e-02    1.799e-07    5.487e-06    1.552e-04    3.737e-03  
  9.4000e-02    1.857e-07    5.650e-06    1.590e-04    3.851e-03  
  9.5000e-02    1.917e-07    5.817e-06    1.630e-04    3.837e-03  
  9.6000e-02    1.979e-07    5.988e-06    1.668e-04    3.979e-03  
  9.7000e-02    2.042e-07    6.163e-06    1.709e-04    3.865e-03  
  9.8000e-02    2.107e-07    6.342e-06    1.749e-04    4.036e-03  
  9.9000e-02    2.174e-07    6.525e-06    1.789e-04    4.007e-03  
    0.10000     2.243e-07    6.712e-06    1.831e-04    4.036e-03  
y
x

        volt    param      
                    gx4    
   -0.10000       0.       
 -9.9000e-02      0.       
 -9.8000e-02      0.       
 -9.7000e-02      0.       
 -9.6000e-02   -2.241e+05  
 -9.5000e-02    6.794e+05  
 -9.4000e-02   -6.865e+05  
 -9.3000e-02    2.312e+05  
 -9.2000e-02     -0.1279   
 -9.1000e-02      0.1137   
 -9.0000e-02     -0.1563   
 -8.9000e-02    5.684e-02  
 -8.8000e-02     -0.1421   
 -8.7000e-02    8.527e-02  
 -8.6000e-02     -0.1279   
 -8.5000e-02    2.295e-10  
 -8.4000e-02   -4.263e-02  
 -8.3000e-02   -9.948e-02  
 -8.2000e-02    4.263e-02  
 -8.1000e-02     -0.1421   
 -8.0000e-02    7.105e-02  
 -7.9000e-02     -0.1990   
 -7.8000e-02    5.684e-02  
 -7.7000e-02   -8.527e-02  
 -7.6000e-02   -8.527e-02  
 -7.5000e-02    1.421e-02  
 -7.4000e-02     -0.1421   
 -7.3000e-02   -4.263e-02  
 -7.2000e-02   -1.421e-02  
 -7.1000e-02   -8.527e-02  
 -7.0000e-02     -0.1137   
 -6.9000e-02    4.263e-02  
 -6.8000e-02     -0.1847   
 -6.7000e-02   -8.539e-13  
 -6.6000e-02   -8.527e-02  
 -6.5000e-02   -2.842e-02  
 -6.4000e-02     -0.1421   
 -6.3000e-02    2.842e-02  
 -6.2000e-02     -0.1563   
 -6.1000e-02    2.842e-02  
 -6.0000e-02     -0.1563   
 -5.9000e-02    2.132e-02  
 -5.8000e-02     -0.1279   
 -5.7000e-02   -4.974e-02  
 -5.6000e-02   -1.421e-02  
 -5.5000e-02   -8.527e-02  
 -5.4000e-02   -7.105e-02  
 -5.3000e-02   -5.684e-02  
 -5.2000e-02   -1.421e-02  
 -5.1000e-02   -8.527e-02  
 -5.0000e-02   -4.263e-02  
 -4.9000e-02   -7.816e-02  
 -4.8000e-02    2.842e-02  
 -4.7000e-02     -0.1208   
 -4.6000e-02   -4.974e-02  
 -4.5000e-02    4.974e-02  
 -4.4000e-02     -0.1563   
 -4.3000e-02    3.553e-02  
 -4.2000e-02   -8.527e-02  
 -4.1000e-02   -1.421e-02  
 -4.0000e-02   -3.553e-02  
 -3.9000e-02   -4.974e-02  
 -3.8000e-02   -3.553e-02  
 -3.7000e-02   -2.132e-02  
 -3.6000e-02   -4.263e-02  
 -3.5000e-02   -2.132e-02  
 -3.4000e-02   -2.842e-02  
 -3.3000e-02   -7.816e-02  
 -3.2000e-02    5.684e-02  
 -3.1000e-02   -9.237e-02  
 -3.0000e-02   -7.105e-03  
 -2.9000e-02   -4.263e-02  
 -2.8000e-02    2.842e-02  
 -2.7000e-02   -9.237e-02  
 -2.6000e-02    1.776e-02  
 -2.5000e-02   -3.553e-02  
 -2.4000e-02   -1.421e-02  
 -2.3000e-02   -1.776e-02  
 -2.2000e-02   -3.553e-02  
 -2.1000e-02   -7.105e-03  
 -2.0000e-02   -2.842e-02  
 -1.9000e-02    1.017e-13  
 -1.8000e-02   -3.197e-02  
 -1.7000e-02   -1.776e-02  
 -1.6000e-02   -7.105e-03  
 -1.5000e-02   -1.421e-02  
 -1.4000e-02   -1.776e-02  
 -1.3000e-02   -1.421e-02  
 -1.2000e-02   -1.776e-03  
 -1.1000e-02   -3.197e-02  
 -1.0000e-02    1.066e-02  
 -9.0000e-03   -1.776e-02  
 -8.0000e-03   -1.776e-02  
 -7.0000e-03    5.329e-03  
 -6.0000e-03   -1.776e-02  
 -5.0000e-03   -7.589e-16  
 -4.0000e-03   -1.332e-02  
 -3.0000e-03   -6.217e-03  
 -2.0000e-03    1.776e-03  
 -1.0000e-03   -1.066e-02  
    0.         -2.220e-03  
  1.0000e-03   -4.441e-03  
  2.0000e-03    4.441e-04  
  3.0000e-03   -5.662e-03  
  4.0000e-03    8.882e-04  
  5.0000e-03    7.683e-02  
  6.0000e-03      0.3166   
  7.0000e-03    5.651e-02  
  8.0000e-03   -8.038e-02  
  9.0000e-03     -0.1672   
  1.0000e-02     -0.2305   
  1.1000e-02     -0.2198   
  1.2000e-02     -0.1692   
  1.3000e-02   -3.908e-02  
  1.4000e-02    4.885e-02  
  1.5000e-02      0.1288   
  1.6000e-02      0.1190   
  1.7000e-02      0.1279   
  1.8000e-02    7.816e-02  
  1.9000e-02    5.507e-02  
  2.0000e-02    3.730e-02  
  2.1000e-02    1.421e-02  
  2.2000e-02    5.329e-03  
  2.3000e-02    2.309e-02  
  2.4000e-02   -1.421e-02  
  2.5000e-02    2.721e-11  
  2.6000e-02    3.553e-02  
  2.7000e-02   -3.197e-02  
  2.8000e-02    4.263e-02  
  2.9000e-02   -1.421e-02  
  3.0000e-02    3.553e-02  
  3.1000e-02   -1.017e-13  
  3.2000e-02    1.421e-02  
  3.3000e-02    2.132e-02  
  3.4000e-02    2.132e-02  
  3.5000e-02    1.066e-02  
  3.6000e-02    3.553e-02  
  3.7000e-02   -1.084e-13  
  3.8000e-02    3.197e-02  
  3.9000e-02    2.842e-02  
  4.0000e-02    2.132e-02  
  4.1000e-02    2.842e-02  
  4.2000e-02    1.421e-02  
  4.3000e-02    3.553e-02  
  4.4000e-02    2.132e-02  
  4.5000e-02    5.684e-02  
  4.6000e-02   -2.132e-02  
  4.7000e-02    9.237e-02  
  4.8000e-02   -3.553e-02  
  4.9000e-02      0.1066   
  5.0000e-02   -1.421e-02  
  5.1000e-02    4.263e-02  
  5.2000e-02    7.816e-02  
  5.3000e-02   -4.263e-02  
  5.4000e-02      0.1066   
  5.5000e-02    3.553e-02  
  5.6000e-02    2.132e-02  
  5.7000e-02    3.553e-02  
  5.8000e-02    7.816e-02  
  5.9000e-02    3.553e-02  
  6.0000e-02    2.132e-02  
  6.1000e-02    8.527e-02  
  6.2000e-02    2.842e-02  
  6.3000e-02    6.395e-02  
  6.4000e-02    4.263e-02  
  6.5000e-02    7.816e-02  
  6.6000e-02    4.263e-02  
  6.7000e-02    2.132e-02  
  6.8000e-02      0.1279   
  6.9000e-02    1.421e-02  
  7.0000e-02    8.527e-02  
  7.1000e-02    2.842e-02  
  7.2000e-02      0.1066   
  7.3000e-02    2.842e-02  
  7.4000e-02    8.527e-02  
  7.5000e-02    8.527e-02  
  7.6000e-02      0.       
  7.7000e-02      0.1421   
  7.8000e-02    2.198e-12  
  7.9000e-02      0.1421   
  8.0000e-02   -2.842e-02  
  8.1000e-02      0.1279   
  8.2000e-02    7.105e-02  
  8.3000e-02    1.421e-02  
  8.4000e-02    7.105e-02  
  8.5000e-02      0.1137   
  8.6000e-02    2.842e-02  
  8.7000e-02    2.842e-02  
  8.8000e-02    9.948e-02  
  8.9000e-02    2.842e-02  
  9.0000e-02    4.263e-02  
  9.1000e-02    8.527e-02  
  9.2000e-02    4.263e-02  
  9.3000e-02    5.684e-02  
  9.4000e-02   -1.421e-02  
  9.5000e-02      0.1137   
  9.6000e-02   -1.421e-02  
  9.7000e-02      0.1421   
  9.8000e-02     -0.1137   
  9.9000e-02      0.1705   
    0.10000    -2.842e-02  
y
-----------------------------------------------
 ******  
 *sample netlist for bsim6

  ******  dc transfer curves tnom=  25.000 temp=  25.000 *****

   *** source        0:vgate =    0.2000        ***

x

        volt    param        param        param        param      
                    ids          gx           gx2          gx3    
   -0.10000    -7.445e-06   -2.243e-06   -6.712e-05   -1.831e-03  
 -9.9000e-02   -7.354e-06   -7.669e-03   -8.955e-03     -0.2502   
 -9.8000e-02   -7.264e-06    9.052e-05     -7.6667      -8.8880   
 -9.7000e-02   -7.175e-06    9.002e-05      7.7594    -7.657e+03  
 -9.6000e-02   -7.085e-06    8.952e-05   -5.000e-04    1.542e+04  
 -9.5000e-02   -6.997e-06    8.903e-05   -4.951e-04   -7.759e+03  
 -9.4000e-02   -6.909e-06    8.855e-05   -4.901e-04    4.889e-03  
 -9.3000e-02   -6.821e-06    8.807e-05   -4.851e-04    4.960e-03  
 -9.2000e-02   -6.734e-06    8.759e-05   -4.799e-04    5.059e-03  
 -9.1000e-02   -6.647e-06    8.712e-05   -4.747e-04    5.159e-03  
 -9.0000e-02   -6.561e-06    8.666e-05   -4.695e-04    5.201e-03  
 -8.9000e-02   -6.476e-06    8.620e-05   -4.641e-04    5.230e-03  
 -8.8000e-02   -6.390e-06    8.575e-05   -4.588e-04    5.357e-03  
 -8.7000e-02   -6.305e-06    8.530e-05   -4.533e-04    5.343e-03  
 -8.6000e-02   -6.221e-06    8.486e-05   -4.478e-04    5.500e-03  
 -8.5000e-02   -6.137e-06    8.442e-05   -4.423e-04    5.457e-03  
 -8.4000e-02   -6.053e-06    8.399e-05   -4.367e-04    5.542e-03  
 -8.3000e-02   -5.970e-06    8.357e-05   -4.311e-04    5.542e-03  
 -8.2000e-02   -5.888e-06    8.315e-05   -4.254e-04    5.656e-03  
 -8.1000e-02   -5.805e-06    8.273e-05   -4.198e-04    5.627e-03  
 -8.0000e-02   -5.723e-06    8.232e-05   -4.141e-04    5.627e-03  
 -7.9000e-02   -5.642e-06    8.192e-05   -4.084e-04    5.727e-03  
 -7.8000e-02   -5.561e-06    8.152e-05   -4.027e-04    5.684e-03  
 -7.7000e-02   -5.480e-06    8.113e-05   -3.970e-04    5.727e-03  
 -7.6000e-02   -5.400e-06    8.075e-05   -3.912e-04    5.713e-03  
 -7.5000e-02   -5.320e-06    8.037e-05   -3.855e-04    5.741e-03  
 -7.4000e-02   -5.240e-06    7.999e-05   -3.797e-04    5.727e-03  
 -7.3000e-02   -5.161e-06    7.962e-05   -3.741e-04    5.770e-03  
 -7.2000e-02   -5.082e-06    7.926e-05   -3.683e-04    5.642e-03  
 -7.1000e-02   -5.003e-06    7.890e-05   -3.627e-04    5.784e-03  
 -7.0000e-02   -4.925e-06    7.855e-05   -3.569e-04    5.642e-03  
 -6.9000e-02   -4.847e-06    7.821e-05   -3.513e-04    5.755e-03  
 -6.8000e-02   -4.770e-06    7.787e-05   -3.457e-04    5.599e-03  
 -6.7000e-02   -4.692e-06    7.753e-05   -3.400e-04    5.656e-03  
 -6.6000e-02   -4.615e-06    7.720e-05   -3.344e-04    5.627e-03  
 -6.5000e-02   -4.539e-06    7.688e-05   -3.289e-04    5.613e-03  
 -6.4000e-02   -4.463e-06    7.656e-05   -3.233e-04    5.556e-03  
 -6.3000e-02   -4.387e-06    7.625e-05   -3.178e-04    5.528e-03  
 -6.2000e-02   -4.311e-06    7.594e-05   -3.123e-04    5.514e-03  
 -6.1000e-02   -4.236e-06    7.564e-05   -3.069e-04    5.478e-03  
 -6.0000e-02   -4.161e-06    7.535e-05   -3.015e-04    5.436e-03  
 -5.9000e-02   -4.086e-06    7.506e-05   -2.961e-04    5.436e-03  
 -5.8000e-02   -4.011e-06    7.477e-05   -2.907e-04    5.386e-03  
 -5.7000e-02   -3.937e-06    7.449e-05   -2.854e-04    5.336e-03  
 -5.6000e-02   -3.863e-06    7.422e-05   -2.801e-04    5.315e-03  
 -5.5000e-02   -3.790e-06    7.395e-05   -2.749e-04    5.308e-03  
 -5.4000e-02   -3.716e-06    7.368e-05   -2.696e-04    5.230e-03  
 -5.3000e-02   -3.643e-06    7.342e-05   -2.644e-04    5.258e-03  
 -5.2000e-02   -3.570e-06    7.317e-05   -2.593e-04    5.180e-03  
 -5.1000e-02   -3.497e-06    7.292e-05   -2.541e-04    5.166e-03  
 -5.0000e-02   -3.425e-06    7.268e-05   -2.490e-04    5.144e-03  
 -4.9000e-02   -3.353e-06    7.244e-05   -2.439e-04    5.116e-03  
 -4.8000e-02   -3.281e-06    7.220e-05   -2.389e-04    5.102e-03  
 -4.7000e-02   -3.209e-06    7.197e-05   -2.338e-04    5.052e-03  
 -4.6000e-02   -3.137e-06    7.175e-05   -2.288e-04    5.038e-03  
 -4.5000e-02   -3.066e-06    7.153e-05   -2.238e-04    5.052e-03  
 -4.4000e-02   -2.995e-06    7.132e-05   -2.188e-04    4.981e-03  
 -4.3000e-02   -2.924e-06    7.111e-05   -2.138e-04    4.981e-03  
 -4.2000e-02   -2.853e-06    7.090e-05   -2.089e-04    4.995e-03  
 -4.1000e-02   -2.783e-06    7.071e-05   -2.040e-04    4.938e-03  
 -4.0000e-02   -2.713e-06    7.051e-05   -1.990e-04    4.931e-03  
 -3.9000e-02   -2.642e-06    7.032e-05   -1.941e-04    4.952e-03  
 -3.8000e-02   -2.573e-06    7.014e-05   -1.892e-04    4.881e-03  
 -3.7000e-02   -2.503e-06    6.996e-05   -1.843e-04    4.924e-03  
 -3.6000e-02   -2.433e-06    6.978e-05   -1.794e-04    4.860e-03  
 -3.5000e-02   -2.364e-06    6.961e-05   -1.746e-04    4.931e-03  
 -3.4000e-02   -2.294e-06    6.945e-05   -1.697e-04    4.846e-03  
 -3.3000e-02   -2.225e-06    6.929e-05   -1.649e-04    4.874e-03  
 -3.2000e-02   -2.156e-06    6.913e-05   -1.600e-04    4.825e-03  
 -3.1000e-02   -2.087e-06    6.898e-05   -1.552e-04    4.874e-03  
 -3.0000e-02   -2.019e-06    6.884e-05   -1.503e-04    4.832e-03  
 -2.9000e-02   -1.950e-06    6.870e-05   -1.455e-04    4.835e-03  
 -2.8000e-02   -1.882e-06    6.856e-05   -1.407e-04    4.807e-03  
 -2.7000e-02   -1.813e-06    6.843e-05   -1.359e-04    4.825e-03  
 -2.6000e-02   -1.745e-06    6.830e-05   -1.311e-04    4.789e-03  
 -2.5000e-02   -1.677e-06    6.818e-05   -1.263e-04    4.800e-03  
 -2.4000e-02   -1.609e-06    6.807e-05   -1.216e-04    4.757e-03  
 -2.3000e-02   -1.541e-06    6.795e-05   -1.168e-04    4.789e-03  
 -2.2000e-02   -1.474e-06    6.785e-05   -1.121e-04    4.732e-03  
 -2.1000e-02   -1.406e-06    6.774e-05   -1.074e-04    4.746e-03  
 -2.0000e-02   -1.338e-06    6.765e-05   -1.027e-04    4.718e-03  
 -1.9000e-02   -1.271e-06    6.755e-05   -9.797e-05    4.697e-03  
 -1.8000e-02   -1.204e-06    6.746e-05   -9.331e-05    4.693e-03  
 -1.7000e-02   -1.136e-06    6.738e-05   -8.865e-05    4.658e-03  
 -1.6000e-02   -1.069e-06    6.730e-05   -8.404e-05    4.661e-03  
 -1.5000e-02   -1.002e-06    6.723e-05   -7.943e-05    4.611e-03  
 -1.4000e-02   -9.348e-07    6.716e-05   -7.485e-05    4.604e-03  
 -1.3000e-02   -8.678e-07    6.709e-05   -7.028e-05    4.587e-03  
 -1.2000e-02   -8.008e-07    6.703e-05   -6.575e-05    4.562e-03  
 -1.1000e-02   -7.339e-07    6.697e-05   -6.125e-05    4.535e-03  
 -1.0000e-02   -6.670e-07    6.692e-05   -5.675e-05    4.503e-03  
 -9.0000e-03   -6.002e-07    6.687e-05   -5.228e-05    4.500e-03  
 -8.0000e-03   -5.334e-07    6.683e-05   -4.783e-05    4.462e-03  
 -7.0000e-03   -4.667e-07    6.679e-05   -4.341e-05    4.452e-03  
 -6.0000e-03   -4.000e-07    6.675e-05   -3.901e-05    4.421e-03  
 -5.0000e-03   -3.333e-07    6.672e-05   -3.462e-05    4.405e-03  
 -4.0000e-03   -2.666e-07    6.670e-05   -3.025e-05    4.382e-03  
 -3.0000e-03   -1.999e-07    6.668e-05   -2.590e-05    4.373e-03  
 -2.0000e-03   -1.333e-07    6.666e-05   -2.156e-05    4.349e-03  
 -1.0000e-03   -6.663e-08    6.665e-05   -1.723e-05    4.339e-03  
    0.         -1.697e-22    6.664e-05   -1.292e-05    4.328e-03  
  1.0000e-03    6.663e-08    6.663e-05   -8.608e-06    4.317e-03  
  2.0000e-03    1.333e-07    6.663e-05   -4.303e-06    4.310e-03  
  3.0000e-03    1.999e-07    6.664e-05    2.542e-08    4.305e-03  
  4.0000e-03    2.666e-07    6.665e-05    4.456e-06    4.328e-03  
  5.0000e-03    3.333e-07    6.666e-05    8.908e-06    4.431e-03  
  6.0000e-03    4.000e-07    6.668e-05    1.334e-05    4.452e-03  
  7.0000e-03    4.667e-07    6.670e-05    1.772e-05    4.429e-03  
  8.0000e-03    5.334e-07    6.673e-05    2.204e-05    4.384e-03  
  9.0000e-03    6.002e-07    6.676e-05    2.629e-05    4.318e-03  
  1.0000e-02    6.671e-07    6.679e-05    3.051e-05    4.253e-03  
  1.1000e-02    7.339e-07    6.683e-05    3.472e-05    4.220e-03  
  1.2000e-02    8.009e-07    6.687e-05    3.897e-05    4.206e-03  
  1.3000e-02    8.678e-07    6.692e-05    4.327e-05    4.253e-03  
  1.4000e-02    9.349e-07    6.697e-05    4.763e-05    4.300e-03  
  1.5000e-02    1.002e-06    6.703e-05    5.205e-05    4.363e-03  
  1.6000e-02    1.069e-06    6.709e-05    5.652e-05    4.420e-03  
  1.7000e-02    1.136e-06    6.716e-05    6.102e-05    4.464e-03  
  1.8000e-02    1.204e-06    6.723e-05    6.556e-05    4.507e-03  
  1.9000e-02    1.271e-06    6.730e-05    7.012e-05    4.535e-03  
  2.0000e-02    1.338e-06    6.738e-05    7.470e-05    4.558e-03  
  2.1000e-02    1.406e-06    6.746e-05    7.931e-05    4.581e-03  
  2.2000e-02    1.474e-06    6.755e-05    8.393e-05    4.610e-03  
  2.3000e-02    1.541e-06    6.765e-05    8.857e-05    4.622e-03  
  2.4000e-02    1.609e-06    6.774e-05    9.323e-05    4.640e-03  
  2.5000e-02    1.677e-06    6.785e-05    9.791e-05    4.658e-03  
  2.6000e-02    1.745e-06    6.795e-05    1.026e-04    4.682e-03  
  2.7000e-02    1.813e-06    6.807e-05    1.073e-04    4.693e-03  
  2.8000e-02    1.882e-06    6.818e-05    1.120e-04    4.707e-03  
  2.9000e-02    1.950e-06    6.830e-05    1.168e-04    4.739e-03  
  3.0000e-02    2.019e-06    6.843e-05    1.215e-04    4.725e-03  
  3.1000e-02    2.087e-06    6.856e-05    1.263e-04    4.771e-03  
  3.2000e-02    2.156e-06    6.870e-05    1.311e-04    4.761e-03  
  3.3000e-02    2.225e-06    6.884e-05    1.359e-04    4.775e-03  
  3.4000e-02    2.294e-06    6.898e-05    1.407e-04    4.800e-03  
  3.5000e-02    2.364e-06    6.913e-05    1.455e-04    4.803e-03  
  3.6000e-02    2.433e-06    6.929e-05    1.503e-04    4.800e-03  
  3.7000e-02    2.503e-06    6.945e-05    1.551e-04    4.846e-03  
  3.8000e-02    2.573e-06    6.961e-05    1.600e-04    4.810e-03  
  3.9000e-02    2.643e-06    6.978e-05    1.648e-04    4.839e-03  
  4.0000e-02    2.713e-06    6.996e-05    1.697e-04    4.853e-03  
  4.1000e-02    2.783e-06    7.014e-05    1.746e-04    4.853e-03  
  4.2000e-02    2.853e-06    7.032e-05    1.794e-04    4.889e-03  
  4.3000e-02    2.924e-06    7.051e-05    1.843e-04    4.832e-03  
  4.4000e-02    2.995e-06    7.071e-05    1.892e-04    4.910e-03  
  4.5000e-02    3.066e-06    7.090e-05    1.941e-04    4.889e-03  
  4.6000e-02    3.138e-06    7.111e-05    1.990e-04    4.910e-03  
  4.7000e-02    3.209e-06    7.132e-05    2.040e-04    4.889e-03  
  4.8000e-02    3.281e-06    7.153e-05    2.089e-04    4.952e-03  
  4.9000e-02    3.353e-06    7.175e-05    2.139e-04    4.910e-03  
  5.0000e-02    3.425e-06    7.197e-05    2.188e-04    5.002e-03  
  5.1000e-02    3.497e-06    7.220e-05    2.238e-04    4.917e-03  
  5.2000e-02    3.570e-06    7.244e-05    2.288e-04    5.024e-03  
  5.3000e-02    3.643e-06    7.268e-05    2.338e-04    4.981e-03  
  5.4000e-02    3.716e-06    7.292e-05    2.389e-04    5.038e-03  
  5.5000e-02    3.790e-06    7.317e-05    2.440e-04    5.031e-03  
  5.6000e-02    3.863e-06    7.342e-05    2.490e-04    5.095e-03  
  5.7000e-02    3.937e-06    7.368e-05    2.542e-04    5.052e-03  
  5.8000e-02    4.011e-06    7.395e-05    2.593e-04    5.151e-03  
  5.9000e-02    4.086e-06    7.422e-05    2.645e-04    5.116e-03  
  6.0000e-02    4.161e-06    7.449e-05    2.696e-04    5.187e-03  
  6.1000e-02    4.236e-06    7.477e-05    2.749e-04    5.180e-03  
  6.2000e-02    4.311e-06    7.506e-05    2.801e-04    5.244e-03  
  6.3000e-02    4.387e-06    7.535e-05    2.854e-04    5.244e-03  
  6.4000e-02    4.463e-06    7.564e-05    2.907e-04    5.294e-03  
  6.5000e-02    4.539e-06    7.594e-05    2.961e-04    5.301e-03  
  6.6000e-02    4.616e-06    7.625e-05    3.015e-04    5.393e-03  
  6.7000e-02    4.692e-06    7.656e-05    3.069e-04    5.350e-03  
  6.8000e-02    4.770e-06    7.688e-05    3.124e-04    5.407e-03  
  6.9000e-02    4.847e-06    7.720e-05    3.178e-04    5.500e-03  
  7.0000e-02    4.925e-06    7.753e-05    3.233e-04    5.429e-03  
  7.1000e-02    5.003e-06    7.787e-05    3.289e-04    5.528e-03  
  7.2000e-02    5.082e-06    7.821e-05    3.344e-04    5.528e-03  
  7.3000e-02    5.161e-06    7.855e-05    3.400e-04    5.556e-03  
  7.4000e-02    5.240e-06    7.891e-05    3.457e-04    5.613e-03  
  7.5000e-02    5.320e-06    7.926e-05    3.512e-04    5.656e-03  
  7.6000e-02    5.400e-06    7.962e-05    3.569e-04    5.571e-03  
  7.7000e-02    5.480e-06    7.999e-05    3.626e-04    5.699e-03  
  7.8000e-02    5.561e-06    8.037e-05    3.683e-04    5.699e-03  
  7.9000e-02    5.642e-06    8.075e-05    3.740e-04    5.699e-03  
  8.0000e-02    5.723e-06    8.113e-05    3.798e-04    5.670e-03  
  8.1000e-02    5.805e-06    8.152e-05    3.855e-04    5.770e-03  
  8.2000e-02    5.888e-06    8.192e-05    3.912e-04    5.713e-03  
  8.3000e-02    5.970e-06    8.232e-05    3.970e-04    5.713e-03  
  8.4000e-02    6.053e-06    8.273e-05    4.027e-04    5.741e-03  
  8.5000e-02    6.137e-06    8.315e-05    4.083e-04    5.770e-03  
  8.6000e-02    6.221e-06    8.357e-05    4.141e-04    5.627e-03  
  8.7000e-02    6.305e-06    8.399e-05    4.198e-04    5.798e-03  
  8.8000e-02    6.390e-06    8.442e-05    4.255e-04    5.627e-03  
  8.9000e-02    6.476e-06    8.486e-05    4.311e-04    5.699e-03  
  9.0000e-02    6.561e-06    8.530e-05    4.367e-04    5.599e-03  
  9.1000e-02    6.648e-06    8.575e-05    4.423e-04    5.656e-03  
  9.2000e-02    6.734e-06    8.620e-05    4.478e-04    5.542e-03  
  9.3000e-02    6.821e-06    8.666e-05    4.533e-04    5.542e-03  
  9.4000e-02    6.909e-06    8.712e-05    4.587e-04    5.485e-03  
  9.5000e-02    6.997e-06    8.759e-05    4.641e-04    5.443e-03  
  9.6000e-02    7.086e-06    8.807e-05    4.695e-04    5.357e-03  
  9.7000e-02    7.175e-06    8.855e-05    4.747e-04    5.386e-03  
  9.8000e-02    7.264e-06    8.903e-05    4.799e-04    5.201e-03  
  9.9000e-02    7.354e-06    8.952e-05    4.851e-04    5.244e-03  
    0.10000     7.445e-06    9.002e-05    4.901e-04    5.159e-03  
y
x

        volt    param      
                    gx4    
   -0.10000    -4.036e-02  
 -9.9000e-02     -5.8664   
 -9.8000e-02   -248.3367   
 -9.7000e-02   -8.637e+03  
 -9.6000e-02   -7.648e+06  
 -9.5000e-02    2.308e+07  
 -9.4000e-02   -2.318e+07  
 -9.3000e-02    7.759e+06  
 -9.2000e-02    7.105e-02  
 -9.1000e-02    9.948e-02  
 -9.0000e-02    9.948e-02  
 -8.9000e-02    4.263e-02  
 -8.8000e-02    2.842e-02  
 -8.7000e-02      0.1279   
 -8.6000e-02   -1.421e-02  
 -8.5000e-02      0.1563   
 -8.4000e-02   -4.263e-02  
 -8.3000e-02    8.527e-02  
 -8.2000e-02      0.       
 -8.1000e-02      0.1137   
 -8.0000e-02   -2.842e-02  
 -7.9000e-02   -2.711e-11  
 -7.8000e-02    9.948e-02  
 -7.7000e-02   -4.263e-02  
 -7.6000e-02    4.263e-02  
 -7.5000e-02   -1.421e-02  
 -7.4000e-02    2.842e-02  
 -7.3000e-02   -1.421e-02  
 -7.2000e-02    4.263e-02  
 -7.1000e-02     -0.1279   
 -7.0000e-02      0.1421   
 -6.9000e-02     -0.1421   
 -6.8000e-02      0.1137   
 -6.7000e-02     -0.1563   
 -6.6000e-02    5.684e-02  
 -6.5000e-02   -2.842e-02  
 -6.4000e-02   -1.421e-02  
 -6.3000e-02   -5.684e-02  
 -6.2000e-02   -2.842e-02  
 -6.1000e-02   -1.421e-02  
 -6.0000e-02   -3.553e-02  
 -5.9000e-02   -4.263e-02  
 -5.8000e-02   -1.588e-09  
 -5.7000e-02   -4.974e-02  
 -5.6000e-02   -4.974e-02  
 -5.5000e-02   -2.132e-02  
 -5.4000e-02   -7.105e-03  
 -5.3000e-02   -7.816e-02  
 -5.2000e-02    2.842e-02  
 -5.1000e-02   -7.816e-02  
 -5.0000e-02   -1.421e-02  
 -4.9000e-02   -2.132e-02  
 -4.8000e-02   -2.842e-02  
 -4.7000e-02   -1.421e-02  
 -4.6000e-02   -4.974e-02  
 -4.5000e-02   -1.421e-02  
 -4.4000e-02    1.421e-02  
 -4.3000e-02   -7.105e-02  
 -4.2000e-02    1.504e-09  
 -4.1000e-02    1.421e-02  
 -4.0000e-02   -5.684e-02  
 -3.9000e-02   -7.105e-03  
 -3.8000e-02    2.132e-02  
 -3.7000e-02   -7.105e-02  
 -3.6000e-02    4.263e-02  
 -3.5000e-02   -6.395e-02  
 -3.4000e-02    7.105e-02  
 -3.3000e-02   -8.527e-02  
 -3.2000e-02    2.842e-02  
 -3.1000e-02   -4.974e-02  
 -3.0000e-02    4.974e-02  
 -2.9000e-02   -4.263e-02  
 -2.8000e-02    3.553e-03  
 -2.7000e-02   -2.842e-02  
 -2.6000e-02    1.776e-02  
 -2.5000e-02   -3.553e-02  
 -2.4000e-02    1.066e-02  
 -2.3000e-02   -4.263e-02  
 -2.2000e-02    3.197e-02  
 -2.1000e-02   -5.684e-02  
 -2.0000e-02    1.421e-02  
 -1.9000e-02   -2.842e-02  
 -1.8000e-02   -2.132e-02  
 -1.7000e-02   -3.553e-03  
 -1.6000e-02   -3.553e-02  
 -1.5000e-02    3.553e-03  
 -1.4000e-02   -4.974e-02  
 -1.3000e-02   -7.105e-03  
 -1.2000e-02   -1.776e-02  
 -1.1000e-02   -2.487e-02  
 -1.0000e-02   -2.665e-02  
 -9.0000e-03   -3.197e-02  
 -8.0000e-03   -3.553e-03  
 -7.0000e-03   -3.730e-02  
 -6.0000e-03   -1.066e-02  
 -5.0000e-03   -3.020e-02  
 -4.0000e-03   -1.599e-02  
 -3.0000e-03   -2.309e-02  
 -2.0000e-03   -9.770e-03  
 -1.0000e-03   -2.309e-02  
    0.         -1.066e-02  
  1.0000e-03   -1.110e-02  
  2.0000e-03   -1.044e-02  
  3.0000e-03   -7.327e-03  
  4.0000e-03   -4.885e-03  
  5.0000e-03    2.298e-02  
  6.0000e-03      0.1026   
  7.0000e-03    2.132e-02  
  8.0000e-03   -2.265e-02  
  9.0000e-03   -4.541e-02  
  1.0000e-02   -6.595e-02  
  1.1000e-02   -6.484e-02  
  1.2000e-02   -3.331e-02  
  1.3000e-02   -1.332e-02  
  1.4000e-02    4.619e-02  
  1.5000e-02    4.707e-02  
  1.6000e-02    6.306e-02  
  1.7000e-02    5.684e-02  
  1.8000e-02    4.441e-02  
  1.9000e-02    4.263e-02  
  2.0000e-02    2.842e-02  
  2.1000e-02    2.309e-02  
  2.2000e-02    2.309e-02  
  2.3000e-02    2.842e-02  
  2.4000e-02    1.243e-02  
  2.5000e-02    1.776e-02  
  2.6000e-02    1.776e-02  
  2.7000e-02    2.487e-02  
  2.8000e-02    1.066e-02  
  2.9000e-02    1.421e-02  
  3.0000e-02    3.197e-02  
  3.1000e-02   -1.421e-02  
  3.2000e-02    4.619e-02  
  3.3000e-02   -1.066e-02  
  3.4000e-02    1.421e-02  
  3.5000e-02    2.487e-02  
  3.6000e-02    3.553e-03  
  3.7000e-02   -3.553e-03  
  3.8000e-02    4.619e-02  
  3.9000e-02   -3.553e-02  
  4.0000e-02    2.842e-02  
  4.1000e-02    1.421e-02  
  4.2000e-02   -2.689e-14  
  4.3000e-02    3.553e-02  
  4.4000e-02   -5.684e-02  
  4.5000e-02    7.816e-02  
  4.6000e-02   -2.132e-02  
  4.7000e-02    2.132e-02  
  4.8000e-02   -2.132e-02  
  4.9000e-02    6.395e-02  
  5.0000e-02   -4.263e-02  
  5.1000e-02    9.237e-02  
  5.2000e-02   -8.527e-02  
  5.3000e-02      0.1066   
  5.4000e-02   -4.263e-02  
  5.5000e-02    5.684e-02  
  5.6000e-02   -7.105e-03  
  5.7000e-02    6.395e-02  
  5.8000e-02   -4.263e-02  
  5.9000e-02    9.948e-02  
  6.0000e-02   -3.553e-02  
  6.1000e-02    7.105e-02  
  6.2000e-02   -7.105e-03  
  6.3000e-02    6.395e-02  
  6.4000e-02    5.464e-14  
  6.5000e-02    4.974e-02  
  6.6000e-02    7.105e-03  
  6.7000e-02    9.237e-02  
  6.8000e-02   -4.263e-02  
  6.9000e-02    5.684e-02  
  7.0000e-02    9.237e-02  
  7.1000e-02   -7.105e-02  
  7.2000e-02    9.948e-02  
  7.3000e-02      0.       
  7.4000e-02    2.842e-02  
  7.5000e-02    5.684e-02  
  7.6000e-02    4.263e-02  
  7.7000e-02   -8.527e-02  
  7.8000e-02      0.1279   
  7.9000e-02    2.189e-09  
  8.0000e-02   -6.617e-09  
  8.1000e-02   -2.842e-02  
  8.2000e-02    9.948e-02  
  8.3000e-02   -5.684e-02  
  8.4000e-02      0.       
  8.5000e-02    2.842e-02  
  8.6000e-02    2.842e-02  
  8.7000e-02     -0.1421   
  8.8000e-02      0.1705   
  8.9000e-02     -0.1705   
  9.0000e-02    7.105e-02  
  9.1000e-02   -9.948e-02  
  9.2000e-02    5.684e-02  
  9.3000e-02     -0.1137   
  9.4000e-02      0.       
  9.5000e-02   -5.684e-02  
  9.6000e-02   -4.263e-02  
  9.7000e-02   -8.527e-02  
  9.8000e-02    2.842e-02  
  9.9000e-02     -0.1847   
    0.10000     4.263e-02  
y
-----------------------------------------------
 ******  
 *sample netlist for bsim6

  ******  dc transfer curves tnom=  25.000 temp=  25.000 *****

   *** source        0:vgate =    0.4000        ***

x

        volt    param        param        param        param      
                    ids          gx           gx2          gx3    
   -0.10000    -2.715e-05   -7.445e-05   -9.002e-04   -4.901e-03  
 -9.9000e-02   -2.688e-05   -3.460e-02     -0.1645      -1.3903   
 -9.8000e-02   -2.662e-05    2.674e-04    -34.5206    -163.5653   
 -9.7000e-02   -2.635e-05    2.675e-04     34.8624    -3.435e+04  
 -9.6000e-02   -2.608e-05    2.676e-04    1.180e-04    6.938e+04  
 -9.5000e-02   -2.581e-05    2.677e-04    1.173e-04   -3.486e+04  
 -9.4000e-02   -2.554e-05    2.678e-04    1.164e-04   -7.390e-04  
 -9.3000e-02   -2.528e-05    2.679e-04    1.155e-04   -8.527e-04  
 -9.2000e-02   -2.501e-05    2.680e-04    1.146e-04   -9.095e-04  
 -9.1000e-02   -2.474e-05    2.682e-04    1.137e-04   -9.095e-04  
 -9.0000e-02   -2.447e-05    2.683e-04    1.127e-04   -9.521e-04  
 -8.9000e-02   -2.420e-05    2.684e-04    1.117e-04   -9.521e-04  
 -8.8000e-02   -2.393e-05    2.685e-04    1.106e-04   -1.037e-03  
 -8.7000e-02   -2.367e-05    2.686e-04    1.096e-04   -1.052e-03  
 -8.6000e-02   -2.340e-05    2.687e-04    1.085e-04   -9.805e-04  
 -8.5000e-02   -2.313e-05    2.688e-04    1.074e-04   -1.151e-03  
 -8.4000e-02   -2.286e-05    2.689e-04    1.063e-04   -1.037e-03  
 -8.3000e-02   -2.259e-05    2.690e-04    1.052e-04   -1.165e-03  
 -8.2000e-02   -2.232e-05    2.691e-04    1.040e-04   -1.052e-03  
 -8.1000e-02   -2.205e-05    2.692e-04    1.029e-04   -1.208e-03  
 -8.0000e-02   -2.178e-05    2.693e-04    1.017e-04   -1.094e-03  
 -7.9000e-02   -2.151e-05    2.694e-04    1.006e-04   -1.194e-03  
 -7.8000e-02   -2.124e-05    2.695e-04    9.945e-05   -1.137e-03  
 -7.7000e-02   -2.097e-05    2.696e-04    9.825e-05   -1.151e-03  
 -7.6000e-02   -2.070e-05    2.697e-04    9.710e-05   -1.194e-03  
 -7.5000e-02   -2.043e-05    2.698e-04    9.592e-05   -1.151e-03  
 -7.4000e-02   -2.016e-05    2.699e-04    9.474e-05   -1.180e-03  
 -7.3000e-02   -1.989e-05    2.700e-04    9.364e-05   -1.180e-03  
 -7.2000e-02   -1.962e-05    2.701e-04    9.241e-05   -1.108e-03  
 -7.1000e-02   -1.935e-05    2.702e-04    9.126e-05   -1.222e-03  
 -7.0000e-02   -1.908e-05    2.703e-04    9.014e-05   -1.151e-03  
 -6.9000e-02   -1.881e-05    2.704e-04    8.899e-05   -1.123e-03  
 -6.8000e-02   -1.854e-05    2.704e-04    8.782e-05   -1.151e-03  
 -6.7000e-02   -1.827e-05    2.705e-04    8.674e-05   -1.165e-03  
 -6.6000e-02   -1.800e-05    2.706e-04    8.563e-05   -1.080e-03  
 -6.5000e-02   -1.773e-05    2.707e-04    8.447e-05   -1.108e-03  
 -6.4000e-02   -1.746e-05    2.708e-04    8.346e-05   -1.165e-03  
 -6.3000e-02   -1.719e-05    2.709e-04    8.228e-05   -1.009e-03  
 -6.2000e-02   -1.692e-05    2.709e-04    8.131e-05   -1.180e-03  
 -6.1000e-02   -1.665e-05    2.710e-04    8.020e-05   -9.734e-04  
 -6.0000e-02   -1.637e-05    2.711e-04    7.918e-05   -1.108e-03  
 -5.9000e-02   -1.610e-05    2.712e-04    7.811e-05   -1.023e-03  
 -5.8000e-02   -1.583e-05    2.713e-04    7.712e-05   -1.066e-03  
 -5.7000e-02   -1.556e-05    2.713e-04    7.612e-05   -9.948e-04  
 -5.6000e-02   -1.529e-05    2.714e-04    7.511e-05   -9.948e-04  
 -5.5000e-02   -1.502e-05    2.715e-04    7.412e-05   -1.009e-03  
 -5.4000e-02   -1.475e-05    2.715e-04    7.314e-05   -9.877e-04  
 -5.3000e-02   -1.447e-05    2.716e-04    7.223e-05   -9.805e-04  
 -5.2000e-02   -1.420e-05    2.717e-04    7.121e-05   -9.166e-04  
 -5.1000e-02   -1.393e-05    2.718e-04    7.034e-05   -1.016e-03  
 -5.0000e-02   -1.366e-05    2.718e-04    6.935e-05   -8.669e-04  
 -4.9000e-02   -1.339e-05    2.719e-04    6.848e-05   -9.948e-04  
 -4.8000e-02   -1.311e-05    2.720e-04    6.753e-05   -8.740e-04  
 -4.7000e-02   -1.284e-05    2.720e-04    6.665e-05   -9.450e-04  
 -4.6000e-02   -1.257e-05    2.721e-04    6.573e-05   -8.811e-04  
 -4.5000e-02   -1.230e-05    2.722e-04    6.483e-05   -9.237e-04  
 -4.4000e-02   -1.203e-05    2.722e-04    6.393e-05   -8.953e-04  
 -4.3000e-02   -1.175e-05    2.723e-04    6.305e-05   -8.953e-04  
 -4.2000e-02   -1.148e-05    2.723e-04    6.213e-05   -8.811e-04  
 -4.1000e-02   -1.121e-05    2.724e-04    6.127e-05   -9.237e-04  
 -4.0000e-02   -1.094e-05    2.725e-04    6.036e-05   -8.598e-04  
 -3.9000e-02   -1.066e-05    2.725e-04    5.945e-05   -9.095e-04  
 -3.8000e-02   -1.039e-05    2.726e-04    5.856e-05   -9.095e-04  
 -3.7000e-02   -1.012e-05    2.726e-04    5.765e-05   -8.953e-04  
 -3.6000e-02   -9.845e-06    2.727e-04    5.671e-05   -9.024e-04  
 -3.5000e-02   -9.573e-06    2.727e-04    5.576e-05   -9.450e-04  
 -3.4000e-02   -9.300e-06    2.728e-04    5.485e-05   -9.450e-04  
 -3.3000e-02   -9.027e-06    2.729e-04    5.389e-05   -9.166e-04  
 -3.2000e-02   -8.754e-06    2.729e-04    5.287e-05   -9.592e-04  
 -3.1000e-02   -8.481e-06    2.730e-04    5.191e-05   -1.016e-03  
 -3.0000e-02   -8.208e-06    2.730e-04    5.090e-05   -9.592e-04  
 -2.9000e-02   -7.935e-06    2.731e-04    4.983e-05   -1.013e-03  
 -2.8000e-02   -7.662e-06    2.731e-04    4.880e-05   -1.069e-03  
 -2.7000e-02   -7.388e-06    2.731e-04    4.770e-05   -1.030e-03  
 -2.6000e-02   -7.115e-06    2.732e-04    4.659e-05   -1.098e-03  
 -2.5000e-02   -6.842e-06    2.732e-04    4.545e-05   -1.112e-03  
 -2.4000e-02   -6.568e-06    2.733e-04    4.428e-05   -1.137e-03  
 -2.3000e-02   -6.295e-06    2.733e-04    4.308e-05   -1.169e-03  
 -2.2000e-02   -6.022e-06    2.734e-04    4.185e-05   -1.204e-03  
 -2.1000e-02   -5.748e-06    2.734e-04    4.058e-05   -1.233e-03  
 -2.0000e-02   -5.475e-06    2.734e-04    3.928e-05   -1.272e-03  
 -1.9000e-02   -5.201e-06    2.735e-04    3.793e-05   -1.300e-03  
 -1.8000e-02   -4.928e-06    2.735e-04    3.655e-05   -1.343e-03  
 -1.7000e-02   -4.654e-06    2.735e-04    3.515e-05   -1.378e-03  
 -1.6000e-02   -4.381e-06    2.736e-04    3.369e-05   -1.407e-03  
 -1.5000e-02   -4.107e-06    2.736e-04    3.220e-05   -1.453e-03  
 -1.4000e-02   -3.833e-06    2.736e-04    3.068e-05   -1.496e-03  
 -1.3000e-02   -3.560e-06    2.737e-04    2.910e-05   -1.522e-03  
 -1.2000e-02   -3.286e-06    2.737e-04    2.750e-05   -1.574e-03  
 -1.1000e-02   -3.012e-06    2.737e-04    2.586e-05   -1.602e-03  
 -1.0000e-02   -2.738e-06    2.737e-04    2.418e-05   -1.636e-03  
 -9.0000e-03   -2.465e-06    2.738e-04    2.247e-05   -1.680e-03  
 -8.0000e-03   -2.191e-06    2.738e-04    2.073e-05   -1.711e-03  
 -7.0000e-03   -1.917e-06    2.738e-04    1.895e-05   -1.743e-03  
 -6.0000e-03   -1.643e-06    2.738e-04    1.714e-05   -1.776e-03  
 -5.0000e-03   -1.369e-06    2.738e-04    1.532e-05   -1.810e-03  
 -4.0000e-03   -1.095e-06    2.738e-04    1.346e-05   -1.824e-03  
 -3.0000e-03   -8.216e-07    2.738e-04    1.158e-05   -1.864e-03  
 -2.0000e-03   -5.477e-07    2.739e-04    9.680e-06   -1.877e-03  
 -1.0000e-03   -2.739e-07    2.739e-04    7.761e-06   -1.898e-03  
    0.          3.915e-21    2.739e-04    5.835e-06   -1.919e-03  
  1.0000e-03    2.739e-07    2.739e-04    3.895e-06   -1.926e-03  
  2.0000e-03    5.477e-07    2.739e-04    1.949e-06   -1.940e-03  
  3.0000e-03    8.216e-07    2.739e-04    7.216e-09   -1.945e-03  
  4.0000e-03    1.095e-06    2.739e-04   -1.908e-06   -1.942e-03  
  5.0000e-03    1.369e-06    2.739e-04   -3.812e-06   -1.915e-03  
  6.0000e-03    1.643e-06    2.738e-04   -5.720e-06   -1.905e-03  
  7.0000e-03    1.917e-06    2.738e-04   -7.628e-06   -1.908e-03  
  8.0000e-03    2.191e-06    2.738e-04   -9.548e-06   -1.908e-03  
  9.0000e-03    2.465e-06    2.738e-04   -1.147e-05   -1.921e-03  
  1.0000e-02    2.738e-06    2.738e-04   -1.339e-05   -1.921e-03  
  1.1000e-02    3.012e-06    2.738e-04   -1.529e-05   -1.918e-03  
  1.2000e-02    3.286e-06    2.738e-04   -1.716e-05   -1.898e-03  
  1.3000e-02    3.560e-06    2.737e-04   -1.899e-05   -1.870e-03  
  1.4000e-02    3.833e-06    2.737e-04   -2.078e-05   -1.836e-03  
  1.5000e-02    4.107e-06    2.737e-04   -2.253e-05   -1.791e-03  
  1.6000e-02    4.381e-06    2.737e-04   -2.425e-05   -1.753e-03  
  1.7000e-02    4.654e-06    2.736e-04   -2.592e-05   -1.714e-03  
  1.8000e-02    4.928e-06    2.736e-04   -2.755e-05   -1.670e-03  
  1.9000e-02    5.201e-06    2.736e-04   -2.915e-05   -1.636e-03  
  2.0000e-02    5.475e-06    2.735e-04   -3.072e-05   -1.593e-03  
  2.1000e-02    5.748e-06    2.735e-04   -3.223e-05   -1.570e-03  
  2.2000e-02    6.022e-06    2.735e-04   -3.371e-05   -1.515e-03  
  2.3000e-02    6.295e-06    2.734e-04   -3.518e-05   -1.478e-03  
  2.4000e-02    6.569e-06    2.734e-04   -3.656e-05   -1.467e-03  
  2.5000e-02    6.842e-06    2.734e-04   -3.796e-05   -1.386e-03  
  2.6000e-02    7.115e-06    2.733e-04   -3.928e-05   -1.400e-03  
  2.7000e-02    7.388e-06    2.733e-04   -4.059e-05   -1.318e-03  
  2.8000e-02    7.662e-06    2.732e-04   -4.186e-05   -1.304e-03  
  2.9000e-02    7.935e-06    2.732e-04   -4.308e-05   -1.272e-03  
  3.0000e-02    8.208e-06    2.731e-04   -4.430e-05   -1.226e-03  
  3.1000e-02    8.481e-06    2.731e-04   -4.545e-05   -1.215e-03  
  3.2000e-02    8.754e-06    2.731e-04   -4.662e-05   -1.148e-03  
  3.3000e-02    9.027e-06    2.730e-04   -4.770e-05   -1.169e-03  
  3.4000e-02    9.300e-06    2.730e-04   -4.879e-05   -1.087e-03  
  3.5000e-02    9.573e-06    2.729e-04   -4.985e-05   -1.087e-03  
  3.6000e-02    9.845e-06    2.729e-04   -5.090e-05   -1.062e-03  
  3.7000e-02    1.012e-05    2.728e-04   -5.190e-05   -1.048e-03  
  3.8000e-02    1.039e-05    2.727e-04   -5.289e-05   -9.983e-04  
  3.9000e-02    1.066e-05    2.727e-04   -5.388e-05   -9.948e-04  
  4.0000e-02    1.094e-05    2.726e-04   -5.483e-05   -9.877e-04  
  4.1000e-02    1.121e-05    2.726e-04   -5.579e-05   -9.521e-04  
  4.2000e-02    1.148e-05    2.725e-04   -5.671e-05   -9.592e-04  
  4.3000e-02    1.175e-05    2.725e-04   -5.764e-05   -9.166e-04  
  4.4000e-02    1.203e-05    2.724e-04   -5.855e-05   -9.308e-04  
  4.5000e-02    1.230e-05    2.723e-04   -5.946e-05   -9.095e-04  
  4.6000e-02    1.257e-05    2.723e-04   -6.037e-05   -9.095e-04  
  4.7000e-02    1.284e-05    2.722e-04   -6.125e-05   -9.166e-04  
  4.8000e-02    1.311e-05    2.722e-04   -6.215e-05   -8.740e-04  
  4.9000e-02    1.339e-05    2.721e-04   -6.304e-05   -9.024e-04  
  5.0000e-02    1.366e-05    2.720e-04   -6.395e-05   -8.882e-04  
  5.1000e-02    1.393e-05    2.720e-04   -6.482e-05   -9.095e-04  
  5.2000e-02    1.420e-05    2.719e-04   -6.576e-05   -8.669e-04  
  5.3000e-02    1.447e-05    2.718e-04   -6.660e-05   -9.450e-04  
  5.4000e-02    1.475e-05    2.718e-04   -6.756e-05   -8.384e-04  
  5.5000e-02    1.502e-05    2.717e-04   -6.845e-05   -9.592e-04  
  5.6000e-02    1.529e-05    2.716e-04   -6.938e-05   -8.953e-04  
  5.7000e-02    1.556e-05    2.715e-04   -7.032e-05   -9.237e-04  
  5.8000e-02    1.583e-05    2.715e-04   -7.123e-05   -9.379e-04  
  5.9000e-02    1.610e-05    2.714e-04   -7.221e-05   -9.166e-04  
  6.0000e-02    1.637e-05    2.713e-04   -7.314e-05   -9.805e-04  
  6.1000e-02    1.665e-05    2.713e-04   -7.414e-05   -9.308e-04  
  6.2000e-02    1.692e-05    2.712e-04   -7.511e-05   -9.948e-04  
  6.3000e-02    1.719e-05    2.711e-04   -7.610e-05   -9.734e-04  
  6.4000e-02    1.746e-05    2.710e-04   -7.712e-05   -9.877e-04  
  6.5000e-02    1.773e-05    2.709e-04   -7.813e-05   -1.016e-03  
  6.6000e-02    1.800e-05    2.709e-04   -7.918e-05   -1.016e-03  
  6.7000e-02    1.827e-05    2.708e-04   -8.019e-05   -1.044e-03  
  6.8000e-02    1.854e-05    2.707e-04   -8.129e-05   -1.016e-03  
  6.9000e-02    1.881e-05    2.706e-04   -8.228e-05   -1.101e-03  
  7.0000e-02    1.908e-05    2.705e-04   -8.349e-05   -9.877e-04  
  7.1000e-02    1.935e-05    2.704e-04   -8.443e-05   -1.208e-03  
  7.2000e-02    1.962e-05    2.704e-04   -8.568e-05   -9.379e-04  
  7.3000e-02    1.989e-05    2.703e-04   -8.667e-05   -1.251e-03  
  7.4000e-02    2.016e-05    2.702e-04   -8.789e-05   -9.948e-04  
  7.5000e-02    2.043e-05    2.701e-04   -8.899e-05   -1.222e-03  
  7.6000e-02    2.070e-05    2.700e-04   -9.010e-05   -1.094e-03  
  7.7000e-02    2.097e-05    2.699e-04   -9.129e-05   -1.108e-03  
  7.8000e-02    2.124e-05    2.698e-04   -9.244e-05   -1.194e-03  
  7.9000e-02    2.151e-05    2.697e-04   -9.359e-05   -1.151e-03  
  8.0000e-02    2.178e-05    2.696e-04   -9.474e-05   -1.151e-03  
  8.1000e-02    2.205e-05    2.695e-04   -9.588e-05   -1.151e-03  
  8.2000e-02    2.232e-05    2.694e-04   -9.717e-05   -1.137e-03  
  8.3000e-02    2.259e-05    2.693e-04   -9.825e-05   -1.293e-03  
  8.4000e-02    2.286e-05    2.692e-04   -9.942e-05   -1.080e-03  
  8.5000e-02    2.313e-05    2.691e-04   -1.006e-04   -1.165e-03  
  8.6000e-02    2.340e-05    2.690e-04   -1.017e-04   -1.165e-03  
  8.7000e-02    2.367e-05    2.689e-04   -1.029e-04   -1.165e-03  
  8.8000e-02    2.393e-05    2.688e-04   -1.041e-04   -1.165e-03  
  8.9000e-02    2.420e-05    2.687e-04   -1.052e-04   -1.137e-03  
  9.0000e-02    2.447e-05    2.686e-04   -1.063e-04   -1.151e-03  
  9.1000e-02    2.474e-05    2.685e-04   -1.074e-04   -1.108e-03  
  9.2000e-02    2.501e-05    2.684e-04   -1.085e-04   -1.108e-03  
  9.3000e-02    2.528e-05    2.683e-04   -1.096e-04   -1.108e-03  
  9.4000e-02    2.554e-05    2.682e-04   -1.106e-04   -1.066e-03  
  9.5000e-02    2.581e-05    2.680e-04   -1.117e-04   -1.023e-03  
  9.6000e-02    2.608e-05    2.679e-04   -1.127e-04   -1.080e-03  
  9.7000e-02    2.635e-05    2.678e-04   -1.136e-04   -9.948e-04  
  9.8000e-02    2.662e-05    2.677e-04   -1.146e-04   -9.521e-04  
  9.9000e-02    2.688e-05    2.676e-04   -1.156e-04   -9.521e-04  
    0.10000     2.715e-05    2.675e-04   -1.164e-04   -9.663e-04  
y
x

        volt    param      
                    gx4    
   -0.10000    -5.159e-02  
 -9.9000e-02    -10.0593   
 -9.8000e-02   -1.385e+03  
 -9.7000e-02   -1.621e+05  
 -9.6000e-02   -3.419e+07  
 -9.5000e-02    1.037e+08  
 -9.4000e-02   -1.042e+08  
 -9.3000e-02    3.486e+07  
 -9.2000e-02     -0.1137   
 -9.1000e-02   -5.684e-02  
 -9.0000e-02      0.       
 -8.9000e-02   -4.263e-02  
 -8.8000e-02    1.558e-12  
 -8.7000e-02   -8.527e-02  
 -8.6000e-02   -1.421e-02  
 -8.5000e-02    7.105e-02  
 -8.4000e-02     -0.1705   
 -8.3000e-02      0.1137   
 -8.2000e-02     -0.1279   
 -8.1000e-02      0.1137   
 -8.0000e-02     -0.1563   
 -7.9000e-02      0.1137   
 -7.8000e-02   -9.948e-02  
 -7.7000e-02    5.684e-02  
 -7.6000e-02   -1.421e-02  
 -7.5000e-02   -4.263e-02  
 -7.4000e-02    4.263e-02  
 -7.3000e-02   -2.842e-02  
 -7.2000e-02   -3.740e-09  
 -7.1000e-02    7.105e-02  
 -7.0000e-02     -0.1137   
 -6.9000e-02    7.105e-02  
 -6.8000e-02    2.842e-02  
 -6.7000e-02   -2.842e-02  
 -6.6000e-02   -1.421e-02  
 -6.5000e-02    8.527e-02  
 -6.4000e-02   -2.842e-02  
 -6.3000e-02   -5.684e-02  
 -6.2000e-02      0.1563   
 -6.1000e-02     -0.1705   
 -6.0000e-02      0.2061   
 -5.9000e-02     -0.1350   
 -5.8000e-02    8.527e-02  
 -5.7000e-02   -4.263e-02  
 -5.6000e-02    7.105e-02  
 -5.5000e-02   -6.939e-15  
 -5.4000e-02   -1.421e-02  
 -5.3000e-02    2.132e-02  
 -5.2000e-02    7.105e-03  
 -5.1000e-02    6.395e-02  
 -5.0000e-02   -9.948e-02  
 -4.9000e-02      0.1492   
 -4.8000e-02     -0.1279   
 -4.7000e-02      0.1208   
 -4.6000e-02   -7.105e-02  
 -4.5000e-02    6.395e-02  
 -4.4000e-02   -4.263e-02  
 -4.3000e-02    2.842e-02  
 -4.2000e-02    5.529e-09  
 -4.1000e-02    1.421e-02  
 -4.0000e-02   -4.263e-02  
 -3.9000e-02    6.395e-02  
 -3.8000e-02   -4.974e-02  
 -3.7000e-02    1.842e-09  
 -3.6000e-02    1.421e-02  
 -3.5000e-02   -7.105e-03  
 -3.4000e-02   -4.263e-02  
 -3.3000e-02   -6.722e-15  
 -3.2000e-02    2.842e-02  
 -3.1000e-02   -4.263e-02  
 -3.0000e-02   -5.684e-02  
 -2.9000e-02    5.684e-02  
 -2.8000e-02   -5.329e-02  
 -2.7000e-02   -5.684e-02  
 -2.6000e-02    3.908e-02  
 -2.5000e-02   -6.750e-02  
 -2.4000e-02   -1.421e-02  
 -2.3000e-02   -2.487e-02  
 -2.2000e-02   -3.197e-02  
 -2.1000e-02   -3.553e-02  
 -2.0000e-02   -2.842e-02  
 -1.9000e-02   -3.908e-02  
 -1.8000e-02   -2.842e-02  
 -1.7000e-02   -4.263e-02  
 -1.6000e-02   -3.553e-02  
 -1.5000e-02   -2.842e-02  
 -1.4000e-02   -4.619e-02  
 -1.3000e-02   -4.263e-02  
 -1.2000e-02   -2.665e-02  
 -1.1000e-02   -5.151e-02  
 -1.0000e-02   -2.842e-02  
 -9.0000e-03   -3.375e-02  
 -8.0000e-03   -4.441e-02  
 -7.0000e-03   -3.020e-02  
 -6.0000e-03   -3.197e-02  
 -5.0000e-03   -3.375e-02  
 -4.0000e-03   -3.375e-02  
 -3.0000e-03   -1.421e-02  
 -2.0000e-03   -3.997e-02  
 -1.0000e-03   -1.243e-02  
    0.         -2.132e-02  
  1.0000e-03   -2.087e-02  
  2.0000e-03   -7.327e-03  
  3.0000e-03   -1.421e-02  
  4.0000e-03   -4.885e-03  
  5.0000e-03    3.220e-03  
  6.0000e-03    2.709e-02  
  7.0000e-03    1.044e-02  
  8.0000e-03   -3.109e-03  
  9.0000e-03    1.110e-04  
  1.0000e-02   -1.310e-02  
  1.1000e-02   -3.795e-09  
  1.2000e-02    2.220e-03  
  1.3000e-02    2.043e-02  
  1.4000e-02    2.842e-02  
  1.5000e-02    3.375e-02  
  1.6000e-02    4.530e-02  
  1.7000e-02    3.730e-02  
  1.8000e-02    3.908e-02  
  1.9000e-02    4.441e-02  
  2.0000e-02    3.375e-02  
  2.1000e-02    4.263e-02  
  2.2000e-02    2.309e-02  
  2.3000e-02    5.507e-02  
  2.4000e-02    3.730e-02  
  2.5000e-02    1.066e-02  
  2.6000e-02    8.171e-02  
  2.7000e-02   -1.421e-02  
  2.8000e-02    8.171e-02  
  2.9000e-02    1.421e-02  
  3.0000e-02    3.197e-02  
  3.1000e-02    4.619e-02  
  3.2000e-02    1.066e-02  
  3.3000e-02    6.750e-02  
  3.4000e-02   -2.132e-02  
  3.5000e-02    8.171e-02  
  3.6000e-02      0.       
  3.7000e-02    2.487e-02  
  3.8000e-02    1.421e-02  
  3.9000e-02    4.974e-02  
  4.0000e-02    3.553e-03  
  4.1000e-02    7.105e-03  
  4.2000e-02    3.553e-02  
  4.3000e-02   -7.105e-03  
  4.4000e-02    4.263e-02  
  4.5000e-02   -1.421e-02  
  4.6000e-02    2.132e-02  
  4.7000e-02   -1.628e-12  
  4.8000e-02   -7.105e-03  
  4.9000e-02    4.263e-02  
  5.0000e-02   -2.842e-02  
  5.1000e-02    1.421e-02  
  5.2000e-02   -2.132e-02  
  5.3000e-02    4.263e-02  
  5.4000e-02   -7.816e-02  
  5.5000e-02      0.1066   
  5.6000e-02     -0.1208   
  5.7000e-02    6.395e-02  
  5.8000e-02   -2.842e-02  
  5.9000e-02   -1.421e-02  
  6.0000e-02    2.132e-02  
  6.1000e-02   -6.395e-02  
  6.2000e-02    4.974e-02  
  6.3000e-02   -6.395e-02  
  6.4000e-02    2.132e-02  
  6.5000e-02   -1.421e-02  
  6.6000e-02   -2.842e-02  
  6.7000e-02      0.       
  6.8000e-02   -2.842e-02  
  6.9000e-02    2.842e-02  
  7.0000e-02   -8.527e-02  
  7.1000e-02      0.1137   
  7.2000e-02     -0.2203   
  7.3000e-02      0.2700   
  7.4000e-02     -0.3126   
  7.5000e-02      0.2558   
  7.6000e-02     -0.2274   
  7.7000e-02      0.1279   
  7.8000e-02   -1.421e-02  
  7.9000e-02   -8.527e-02  
  8.0000e-02    4.263e-02  
  8.1000e-02    2.244e-08  
  8.2000e-02   -7.481e-09  
  8.3000e-02    1.421e-02  
  8.4000e-02     -0.1563   
  8.5000e-02      0.2132   
  8.6000e-02   -8.527e-02  
  8.7000e-02   -1.344e-14  
  8.8000e-02      0.       
  8.9000e-02      0.       
  9.0000e-02    2.842e-02  
  9.1000e-02   -1.421e-02  
  9.2000e-02    4.263e-02  
  9.3000e-02      0.       
  9.4000e-02      0.       
  9.5000e-02    4.263e-02  
  9.6000e-02    4.263e-02  
  9.7000e-02   -5.684e-02  
  9.8000e-02    8.527e-02  
  9.9000e-02    4.263e-02  
    0.10000     1.355e-14  
y
-----------------------------------------------
 ******  
 *sample netlist for bsim6

  ******  dc transfer curves tnom=  25.000 temp=  25.000 *****

   *** source        0:vgate =    0.6000        ***

x

        volt    param        param        param        param      
                    ids          gx           gx2          gx3    
   -0.10000    -4.688e-05   -2.715e-04   -2.675e-03    1.164e-03  
 -9.9000e-02   -4.642e-05   -7.403e-02     -0.5390      -2.5583   
 -9.8000e-02   -4.595e-05    4.618e-04    -73.7567    -536.3016   
 -9.7000e-02   -4.549e-05    4.620e-04     74.4900    -7.321e+04  
 -9.6000e-02   -4.503e-05    4.622e-04    1.999e-04    1.482e+05  
 -9.5000e-02   -4.457e-05    4.624e-04    1.979e-04   -7.449e+04  
 -9.4000e-02   -4.410e-05    4.626e-04    1.960e-04   -2.004e-03  
 -9.3000e-02   -4.364e-05    4.628e-04    1.939e-04   -1.975e-03  
 -9.2000e-02   -4.318e-05    4.630e-04    1.919e-04   -2.046e-03  
 -9.1000e-02   -4.271e-05    4.632e-04    1.900e-04   -1.975e-03  
 -9.0000e-02   -4.225e-05    4.634e-04    1.880e-04   -1.918e-03  
 -8.9000e-02   -4.179e-05    4.636e-04    1.861e-04   -2.004e-03  
 -8.8000e-02   -4.132e-05    4.637e-04    1.842e-04   -1.918e-03  
 -8.7000e-02   -4.086e-05    4.639e-04    1.822e-04   -1.918e-03  
 -8.6000e-02   -4.039e-05    4.641e-04    1.803e-04   -1.933e-03  
 -8.5000e-02   -3.993e-05    4.643e-04    1.785e-04   -1.904e-03  
 -8.4000e-02   -3.947e-05    4.645e-04    1.766e-04   -1.876e-03  
 -8.3000e-02   -3.900e-05    4.646e-04    1.747e-04   -1.862e-03  
 -8.2000e-02   -3.854e-05    4.648e-04    1.729e-04   -1.904e-03  
 -8.1000e-02   -3.807e-05    4.650e-04    1.710e-04   -1.833e-03  
 -8.0000e-02   -3.761e-05    4.651e-04    1.692e-04   -1.847e-03  
 -7.9000e-02   -3.714e-05    4.653e-04    1.673e-04   -1.819e-03  
 -7.8000e-02   -3.667e-05    4.655e-04    1.656e-04   -1.847e-03  
 -7.7000e-02   -3.621e-05    4.656e-04    1.638e-04   -1.748e-03  
 -7.6000e-02   -3.574e-05    4.658e-04    1.619e-04   -1.819e-03  
 -7.5000e-02   -3.528e-05    4.659e-04    1.602e-04   -1.862e-03  
 -7.4000e-02   -3.481e-05    4.661e-04    1.584e-04   -1.677e-03  
 -7.3000e-02   -3.434e-05    4.663e-04    1.567e-04   -1.819e-03  
 -7.2000e-02   -3.388e-05    4.664e-04    1.549e-04   -1.705e-03  
 -7.1000e-02   -3.341e-05    4.666e-04    1.532e-04   -1.791e-03  
 -7.0000e-02   -3.294e-05    4.667e-04    1.515e-04   -1.720e-03  
 -6.9000e-02   -3.248e-05    4.669e-04    1.498e-04   -1.748e-03  
 -6.8000e-02   -3.201e-05    4.670e-04    1.480e-04   -1.677e-03  
 -6.7000e-02   -3.154e-05    4.672e-04    1.463e-04   -1.734e-03  
 -6.6000e-02   -3.107e-05    4.673e-04    1.447e-04   -1.734e-03  
 -6.5000e-02   -3.061e-05    4.674e-04    1.429e-04   -1.634e-03  
 -6.4000e-02   -3.014e-05    4.676e-04    1.413e-04   -1.748e-03  
 -6.3000e-02   -2.967e-05    4.677e-04    1.396e-04   -1.663e-03  
 -6.2000e-02   -2.920e-05    4.679e-04    1.379e-04   -1.663e-03  
 -6.1000e-02   -2.874e-05    4.680e-04    1.362e-04   -1.684e-03  
 -6.0000e-02   -2.827e-05    4.681e-04    1.346e-04   -1.691e-03  
 -5.9000e-02   -2.780e-05    4.683e-04    1.329e-04   -1.648e-03  
 -5.8000e-02   -2.733e-05    4.684e-04    1.313e-04   -1.670e-03  
 -5.7000e-02   -2.686e-05    4.685e-04    1.296e-04   -1.656e-03  
 -5.6000e-02   -2.639e-05    4.686e-04    1.279e-04   -1.656e-03  
 -5.5000e-02   -2.592e-05    4.688e-04    1.263e-04   -1.677e-03  
 -5.4000e-02   -2.545e-05    4.689e-04    1.246e-04   -1.634e-03  
 -5.3000e-02   -2.499e-05    4.690e-04    1.230e-04   -1.691e-03  
 -5.2000e-02   -2.452e-05    4.691e-04    1.213e-04   -1.599e-03  
 -5.1000e-02   -2.405e-05    4.692e-04    1.196e-04   -1.720e-03  
 -5.0000e-02   -2.358e-05    4.694e-04    1.180e-04   -1.670e-03  
 -4.9000e-02   -2.311e-05    4.695e-04    1.163e-04   -1.634e-03  
 -4.8000e-02   -2.264e-05    4.696e-04    1.146e-04   -1.677e-03  
 -4.7000e-02   -2.217e-05    4.697e-04    1.129e-04   -1.705e-03  
 -4.6000e-02   -2.170e-05    4.698e-04    1.112e-04   -1.663e-03  
 -4.5000e-02   -2.123e-05    4.699e-04    1.096e-04   -1.698e-03  
 -4.4000e-02   -2.076e-05    4.700e-04    1.078e-04   -1.684e-03  
 -4.3000e-02   -2.029e-05    4.701e-04    1.061e-04   -1.755e-03  
 -4.2000e-02   -1.982e-05    4.702e-04    1.044e-04   -1.684e-03  
 -4.1000e-02   -1.935e-05    4.703e-04    1.026e-04   -1.734e-03  
 -4.0000e-02   -1.888e-05    4.704e-04    1.009e-04   -1.769e-03  
 -3.9000e-02   -1.841e-05    4.705e-04    9.906e-05   -1.727e-03  
 -3.8000e-02   -1.794e-05    4.706e-04    9.734e-05   -1.826e-03  
 -3.7000e-02   -1.746e-05    4.707e-04    9.548e-05   -1.720e-03  
 -3.6000e-02   -1.699e-05    4.708e-04    9.367e-05   -1.862e-03  
 -3.5000e-02   -1.652e-05    4.709e-04    9.182e-05   -1.805e-03  
 -3.4000e-02   -1.605e-05    4.710e-04    8.998e-05   -1.855e-03  
 -3.3000e-02   -1.558e-05    4.711e-04    8.806e-05   -1.833e-03  
 -3.2000e-02   -1.511e-05    4.712e-04    8.617e-05   -1.926e-03  
 -3.1000e-02   -1.464e-05    4.712e-04    8.422e-05   -1.890e-03  
 -3.0000e-02   -1.417e-05    4.713e-04    8.226e-05   -1.947e-03  
 -2.9000e-02   -1.370e-05    4.714e-04    8.027e-05   -1.958e-03  
 -2.8000e-02   -1.322e-05    4.715e-04    7.829e-05   -1.997e-03  
 -2.7000e-02   -1.275e-05    4.715e-04    7.620e-05   -1.979e-03  
 -2.6000e-02   -1.228e-05    4.716e-04    7.415e-05   -2.085e-03  
 -2.5000e-02   -1.181e-05    4.717e-04    7.204e-05   -2.050e-03  
 -2.4000e-02   -1.134e-05    4.718e-04    6.991e-05   -2.114e-03  
 -2.3000e-02   -1.087e-05    4.718e-04    6.774e-05   -2.132e-03  
 -2.2000e-02   -1.039e-05    4.719e-04    6.552e-05   -2.171e-03  
 -2.1000e-02   -9.921e-06    4.719e-04    6.330e-05   -2.213e-03  
 -2.0000e-02   -9.449e-06    4.720e-04    6.102e-05   -2.228e-03  
 -1.9000e-02   -8.977e-06    4.721e-04    5.871e-05   -2.274e-03  
 -1.8000e-02   -8.505e-06    4.721e-04    5.636e-05   -2.309e-03  
 -1.7000e-02   -8.033e-06    4.722e-04    5.399e-05   -2.352e-03  
 -1.6000e-02   -7.560e-06    4.722e-04    5.156e-05   -2.370e-03  
 -1.5000e-02   -7.088e-06    4.723e-04    4.912e-05   -2.427e-03  
 -1.4000e-02   -6.616e-06    4.723e-04    4.662e-05   -2.444e-03  
 -1.3000e-02   -6.143e-06    4.723e-04    4.411e-05   -2.501e-03  
 -1.2000e-02   -5.671e-06    4.724e-04    4.154e-05   -2.514e-03  
 -1.1000e-02   -5.198e-06    4.724e-04    3.895e-05   -2.569e-03  
 -1.0000e-02   -4.726e-06    4.725e-04    3.632e-05   -2.585e-03  
 -9.0000e-03   -4.253e-06    4.725e-04    3.366e-05   -2.633e-03  
 -8.0000e-03   -3.781e-06    4.725e-04    3.097e-05   -2.657e-03  
 -7.0000e-03   -3.308e-06    4.725e-04    2.826e-05   -2.688e-03  
 -6.0000e-03   -2.836e-06    4.726e-04    2.551e-05   -2.716e-03  
 -5.0000e-03   -2.363e-06    4.726e-04    2.274e-05   -2.749e-03  
 -4.0000e-03   -1.891e-06    4.726e-04    1.995e-05   -2.766e-03  
 -3.0000e-03   -1.418e-06    4.726e-04    1.714e-05   -2.789e-03  
 -2.0000e-03   -9.453e-07    4.726e-04    1.431e-05   -2.817e-03  
 -1.0000e-03   -4.726e-07    4.726e-04    1.147e-05   -2.826e-03  
    0.         -1.196e-20    4.726e-04    8.610e-06   -2.843e-03  
  1.0000e-03    4.726e-07    4.726e-04    5.746e-06   -2.859e-03  
  2.0000e-03    9.453e-07    4.726e-04    2.875e-06   -2.864e-03  
  3.0000e-03    1.418e-06    4.726e-04    1.443e-09   -2.871e-03  
  4.0000e-03    1.891e-06    4.726e-04   -2.865e-06   -2.873e-03  
  5.0000e-03    2.363e-06    4.726e-04   -5.728e-06   -2.866e-03  
  6.0000e-03    2.836e-06    4.726e-04   -8.586e-06   -2.863e-03  
  7.0000e-03    3.308e-06    4.726e-04   -1.144e-05   -2.859e-03  
  8.0000e-03    3.781e-06    4.726e-04   -1.428e-05   -2.851e-03  
  9.0000e-03    4.253e-06    4.726e-04   -1.711e-05   -2.845e-03  
  1.0000e-02    4.726e-06    4.725e-04   -1.994e-05   -2.831e-03  
  1.1000e-02    5.198e-06    4.725e-04   -2.273e-05   -2.825e-03  
  1.2000e-02    5.671e-06    4.725e-04   -2.552e-05   -2.796e-03  
  1.3000e-02    6.143e-06    4.725e-04   -2.826e-05   -2.781e-03  
  1.4000e-02    6.616e-06    4.724e-04   -3.098e-05   -2.748e-03  
  1.5000e-02    7.088e-06    4.724e-04   -3.368e-05   -2.720e-03  
  1.6000e-02    7.560e-06    4.723e-04   -3.634e-05   -2.693e-03  
  1.7000e-02    8.033e-06    4.723e-04   -3.896e-05   -2.661e-03  
  1.8000e-02    8.505e-06    4.723e-04   -4.155e-05   -2.624e-03  
  1.9000e-02    8.977e-06    4.722e-04   -4.412e-05   -2.590e-03  
  2.0000e-02    9.449e-06    4.722e-04   -4.663e-05   -2.567e-03  
  2.1000e-02    9.921e-06    4.721e-04   -4.912e-05   -2.508e-03  
  2.2000e-02    1.039e-05    4.721e-04   -5.158e-05   -2.494e-03  
  2.3000e-02    1.087e-05    4.720e-04   -5.398e-05   -2.462e-03  
  2.4000e-02    1.134e-05    4.719e-04   -5.639e-05   -2.398e-03  
  2.5000e-02    1.181e-05    4.719e-04   -5.871e-05   -2.405e-03  
  2.6000e-02    1.228e-05    4.718e-04   -6.102e-05   -2.323e-03  
  2.7000e-02    1.275e-05    4.718e-04   -6.330e-05   -2.309e-03  
  2.8000e-02    1.322e-05    4.717e-04   -6.554e-05   -2.277e-03  
  2.9000e-02    1.370e-05    4.716e-04   -6.773e-05   -2.242e-03  
  3.0000e-02    1.417e-05    4.715e-04   -6.991e-05   -2.196e-03  
  3.1000e-02    1.464e-05    4.715e-04   -7.205e-05   -2.174e-03  
  3.2000e-02    1.511e-05    4.714e-04   -7.414e-05   -2.139e-03  
  3.3000e-02    1.558e-05    4.713e-04   -7.622e-05   -2.096e-03  
  3.4000e-02    1.605e-05    4.712e-04   -7.827e-05   -2.075e-03  
  3.5000e-02    1.652e-05    4.712e-04   -8.029e-05   -2.050e-03  
  3.6000e-02    1.699e-05    4.711e-04   -8.227e-05   -2.025e-03  
  3.7000e-02    1.746e-05    4.710e-04   -8.421e-05   -1.975e-03  
  3.8000e-02    1.794e-05    4.709e-04   -8.617e-05   -1.940e-03  
  3.9000e-02    1.841e-05    4.708e-04   -8.806e-05   -1.968e-03  
  4.0000e-02    1.888e-05    4.707e-04   -8.998e-05   -1.883e-03  
  4.1000e-02    1.935e-05    4.706e-04   -9.182e-05   -1.918e-03  
  4.2000e-02    1.982e-05    4.705e-04   -9.367e-05   -1.840e-03  
  4.3000e-02    2.029e-05    4.704e-04   -9.550e-05   -1.855e-03  
  4.4000e-02    2.076e-05    4.703e-04   -9.729e-05   -1.833e-03  
  4.5000e-02    2.123e-05    4.702e-04   -9.910e-05   -1.783e-03  
  4.6000e-02    2.170e-05    4.701e-04   -1.009e-04   -1.812e-03  
  4.7000e-02    2.217e-05    4.700e-04   -1.026e-04   -1.762e-03  
  4.8000e-02    2.264e-05    4.699e-04   -1.044e-04   -1.762e-03  
  4.9000e-02    2.311e-05    4.698e-04   -1.061e-04   -1.734e-03  
  5.0000e-02    2.358e-05    4.697e-04   -1.078e-04   -1.762e-03  
  5.1000e-02    2.405e-05    4.696e-04   -1.095e-04   -1.712e-03  
  5.2000e-02    2.452e-05    4.695e-04   -1.112e-04   -1.670e-03  
  5.3000e-02    2.499e-05    4.694e-04   -1.129e-04   -1.748e-03  
  5.4000e-02    2.545e-05    4.692e-04   -1.146e-04   -1.691e-03  
  5.5000e-02    2.592e-05    4.691e-04   -1.163e-04   -1.648e-03  
  5.6000e-02    2.639e-05    4.690e-04   -1.179e-04   -1.734e-03  
  5.7000e-02    2.686e-05    4.689e-04   -1.197e-04   -1.606e-03  
  5.8000e-02    2.733e-05    4.688e-04   -1.213e-04   -1.734e-03  
  5.9000e-02    2.780e-05    4.686e-04   -1.230e-04   -1.627e-03  
  6.0000e-02    2.827e-05    4.685e-04   -1.246e-04   -1.684e-03  
  6.1000e-02    2.874e-05    4.684e-04   -1.263e-04   -1.620e-03  
  6.2000e-02    2.920e-05    4.683e-04   -1.279e-04   -1.705e-03  
  6.3000e-02    2.967e-05    4.681e-04   -1.296e-04   -1.627e-03  
  6.4000e-02    3.014e-05    4.680e-04   -1.312e-04   -1.698e-03  
  6.5000e-02    3.061e-05    4.679e-04   -1.329e-04   -1.613e-03  
  6.6000e-02    3.107e-05    4.677e-04   -1.346e-04   -1.677e-03  
  6.7000e-02    3.154e-05    4.676e-04   -1.363e-04   -1.656e-03  
  6.8000e-02    3.201e-05    4.674e-04   -1.379e-04   -1.705e-03  
  6.9000e-02    3.248e-05    4.673e-04   -1.396e-04   -1.620e-03  
  7.0000e-02    3.294e-05    4.672e-04   -1.412e-04   -1.727e-03  
  7.1000e-02    3.341e-05    4.670e-04   -1.430e-04   -1.620e-03  
  7.2000e-02    3.388e-05    4.669e-04   -1.447e-04   -1.720e-03  
  7.3000e-02    3.434e-05    4.667e-04   -1.463e-04   -1.705e-03  
  7.4000e-02    3.481e-05    4.666e-04   -1.481e-04   -1.648e-03  
  7.5000e-02    3.528e-05    4.664e-04   -1.498e-04   -1.748e-03  
  7.6000e-02    3.574e-05    4.663e-04   -1.515e-04   -1.691e-03  
  7.7000e-02    3.621e-05    4.661e-04   -1.532e-04   -1.734e-03  
  7.8000e-02    3.667e-05    4.659e-04   -1.550e-04   -1.691e-03  
  7.9000e-02    3.714e-05    4.658e-04   -1.567e-04   -1.776e-03  
  8.0000e-02    3.761e-05    4.656e-04   -1.585e-04   -1.734e-03  
  8.1000e-02    3.807e-05    4.655e-04   -1.602e-04   -1.776e-03  
  8.2000e-02    3.854e-05    4.653e-04   -1.620e-04   -1.705e-03  
  8.3000e-02    3.900e-05    4.651e-04   -1.638e-04   -1.819e-03  
  8.4000e-02    3.947e-05    4.650e-04   -1.655e-04   -1.791e-03  
  8.5000e-02    3.993e-05    4.648e-04   -1.674e-04   -1.748e-03  
  8.6000e-02    4.039e-05    4.646e-04   -1.692e-04   -1.890e-03  
  8.7000e-02    4.086e-05    4.645e-04   -1.710e-04   -1.734e-03  
  8.8000e-02    4.132e-05    4.643e-04   -1.728e-04   -1.890e-03  
  8.9000e-02    4.179e-05    4.641e-04   -1.747e-04   -1.805e-03  
  9.0000e-02    4.225e-05    4.639e-04   -1.766e-04   -1.847e-03  
  9.1000e-02    4.271e-05    4.637e-04   -1.785e-04   -1.890e-03  
  9.2000e-02    4.318e-05    4.636e-04   -1.803e-04   -1.890e-03  
  9.3000e-02    4.364e-05    4.634e-04   -1.823e-04   -1.862e-03  
  9.4000e-02    4.410e-05    4.632e-04   -1.841e-04   -1.918e-03  
  9.5000e-02    4.457e-05    4.630e-04   -1.861e-04   -1.890e-03  
  9.6000e-02    4.503e-05    4.628e-04   -1.880e-04   -1.947e-03  
  9.7000e-02    4.549e-05    4.626e-04   -1.900e-04   -1.947e-03  
  9.8000e-02    4.595e-05    4.624e-04   -1.919e-04   -1.961e-03  
  9.9000e-02    4.642e-05    4.622e-04   -1.939e-04   -1.933e-03  
    0.10000     4.688e-05    4.620e-04   -1.959e-04   -2.004e-03  
y
x

        volt    param      
                    gx4    
   -0.10000     9.663e-03  
 -9.9000e-02      2.1303   
 -9.8000e-02   -2.559e+03  
 -9.7000e-02   -5.337e+05  
 -9.6000e-02   -7.268e+07  
 -9.5000e-02    2.214e+08  
 -9.4000e-02   -2.227e+08  
 -9.3000e-02    7.449e+07  
 -9.2000e-02    2.842e-02  
 -9.1000e-02   -7.105e-02  
 -9.0000e-02    7.105e-02  
 -8.9000e-02    5.684e-02  
 -8.8000e-02   -8.527e-02  
 -8.7000e-02    8.527e-02  
 -8.6000e-02   -1.935e-08  
 -8.5000e-02   -1.421e-02  
 -8.4000e-02    2.842e-02  
 -8.3000e-02    2.842e-02  
 -8.2000e-02    1.421e-02  
 -8.1000e-02   -4.263e-02  
 -8.0000e-02    7.105e-02  
 -7.9000e-02   -1.421e-02  
 -7.8000e-02    2.842e-02  
 -7.7000e-02   -2.842e-02  
 -7.6000e-02    9.948e-02  
 -7.5000e-02   -7.105e-02  
 -7.4000e-02   -4.263e-02  
 -7.3000e-02      0.1847   
 -7.2000e-02     -0.1421   
 -7.1000e-02      0.1137   
 -7.0000e-02   -8.527e-02  
 -6.9000e-02    7.105e-02  
 -6.8000e-02   -2.842e-02  
 -6.7000e-02    7.105e-02  
 -6.6000e-02   -5.684e-02  
 -6.5000e-02      0.       
 -6.4000e-02    9.948e-02  
 -6.3000e-02     -0.1137   
 -6.2000e-02    8.527e-02  
 -6.1000e-02   -1.149e-14  
 -6.0000e-02   -2.132e-02  
 -5.9000e-02   -7.105e-03  
 -5.8000e-02    4.263e-02  
 -5.7000e-02   -2.132e-02  
 -5.6000e-02    1.421e-02  
 -5.5000e-02   -1.149e-14  
 -5.4000e-02   -2.132e-02  
 -5.3000e-02    4.263e-02  
 -5.2000e-02   -5.684e-02  
 -5.1000e-02    9.237e-02  
 -5.0000e-02     -0.1208   
 -4.9000e-02    4.974e-02  
 -4.8000e-02    3.553e-02  
 -4.7000e-02   -4.263e-02  
 -4.6000e-02   -2.842e-02  
 -4.5000e-02    4.263e-02  
 -4.4000e-02   -3.553e-02  
 -4.3000e-02    1.421e-02  
 -4.2000e-02   -7.105e-02  
 -4.1000e-02    7.105e-02  
 -4.0000e-02   -4.974e-02  
 -3.9000e-02   -3.553e-02  
 -3.8000e-02    4.263e-02  
 -3.7000e-02   -9.948e-02  
 -3.6000e-02      0.1066   
 -3.5000e-02     -0.1421   
 -3.4000e-02    5.684e-02  
 -3.3000e-02   -4.974e-02  
 -3.2000e-02    2.132e-02  
 -3.1000e-02   -9.237e-02  
 -3.0000e-02    3.553e-02  
 -2.9000e-02   -5.684e-02  
 -2.8000e-02   -1.066e-02  
 -2.7000e-02   -3.908e-02  
 -2.6000e-02    1.776e-02  
 -2.5000e-02     -0.1066   
 -2.4000e-02    3.553e-02  
 -2.3000e-02   -6.395e-02  
 -2.2000e-02   -1.776e-02  
 -2.1000e-02   -3.908e-02  
 -2.0000e-02   -4.263e-02  
 -1.9000e-02   -1.421e-02  
 -1.8000e-02   -4.619e-02  
 -1.7000e-02   -3.553e-02  
 -1.6000e-02   -4.263e-02  
 -1.5000e-02   -1.776e-02  
 -1.4000e-02   -5.684e-02  
 -1.3000e-02   -1.776e-02  
 -1.2000e-02   -5.684e-02  
 -1.1000e-02   -1.243e-02  
 -1.0000e-02   -5.507e-02  
 -9.0000e-03   -1.599e-02  
 -8.0000e-03   -4.796e-02  
 -7.0000e-03   -2.487e-02  
 -6.0000e-03   -3.020e-02  
 -5.0000e-03   -2.842e-02  
 -4.0000e-03   -3.286e-02  
 -3.0000e-03   -1.688e-02  
 -2.0000e-03   -2.309e-02  
 -1.0000e-03   -2.842e-02  
    0.         -8.882e-03  
  1.0000e-03   -1.643e-02  
  2.0000e-03   -1.599e-02  
  3.0000e-03   -5.551e-03  
  4.0000e-03   -7.105e-03  
  5.0000e-03   -1.887e-03  
  6.0000e-03    6.883e-03  
  7.0000e-03    3.553e-03  
  8.0000e-03    3.997e-03  
  9.0000e-03    7.883e-03  
  1.0000e-02    5.551e-03  
  1.1000e-02    1.421e-02  
  1.2000e-02    5.773e-03  
  1.3000e-02    2.931e-02  
  1.4000e-02    1.510e-02  
  1.5000e-02    3.286e-02  
  1.6000e-02    2.842e-02  
  1.7000e-02    2.665e-02  
  1.8000e-02    3.197e-02  
  1.9000e-02    3.730e-02  
  2.0000e-02    3.375e-02  
  2.1000e-02    2.309e-02  
  2.2000e-02    5.862e-02  
  2.3000e-02    1.421e-02  
  2.4000e-02    3.197e-02  
  2.5000e-02    6.395e-02  
  2.6000e-02   -7.105e-03  
  2.7000e-02    8.171e-02  
  2.8000e-02    1.421e-02  
  2.9000e-02    3.197e-02  
  3.0000e-02    3.553e-02  
  3.1000e-02    4.619e-02  
  3.2000e-02    2.132e-02  
  3.3000e-02    3.553e-02  
  3.4000e-02    4.263e-02  
  3.5000e-02    2.132e-02  
  3.6000e-02    2.487e-02  
  3.7000e-02    2.487e-02  
  3.8000e-02    4.974e-02  
  3.9000e-02    3.553e-02  
  4.0000e-02   -2.842e-02  
  4.1000e-02    8.527e-02  
  4.2000e-02   -3.553e-02  
  4.3000e-02    7.816e-02  
  4.4000e-02   -1.421e-02  
  4.5000e-02    2.132e-02  
  4.6000e-02    4.974e-02  
  4.7000e-02   -2.842e-02  
  4.8000e-02    4.974e-02  
  4.9000e-02   -3.920e-08  
  5.0000e-02    2.842e-02  
  5.1000e-02   -2.842e-02  
  5.2000e-02    4.974e-02  
  5.3000e-02    4.263e-02  
  5.4000e-02   -7.816e-02  
  5.5000e-02    5.684e-02  
  5.6000e-02    4.263e-02  
  5.7000e-02   -8.527e-02  
  5.8000e-02      0.1279   
  5.9000e-02     -0.1279   
  6.0000e-02      0.1066   
  6.1000e-02   -5.684e-02  
  6.2000e-02    6.395e-02  
  6.3000e-02   -8.527e-02  
  6.4000e-02    7.816e-02  
  6.5000e-02   -7.105e-02  
  6.6000e-02    8.527e-02  
  6.7000e-02   -6.395e-02  
  6.8000e-02    2.132e-02  
  6.9000e-02   -4.974e-02  
  7.0000e-02    8.527e-02  
  7.1000e-02     -0.1066   
  7.2000e-02      0.1066   
  7.3000e-02   -9.948e-02  
  7.4000e-02    1.421e-02  
  7.5000e-02    5.684e-02  
  7.6000e-02   -9.948e-02  
  7.7000e-02    5.684e-02  
  7.8000e-02   -4.263e-02  
  7.9000e-02    4.263e-02  
  8.0000e-02   -8.527e-02  
  8.1000e-02    4.263e-02  
  8.2000e-02   -4.263e-02  
  8.3000e-02    7.105e-02  
  8.4000e-02     -0.1137   
  8.5000e-02    2.842e-02  
  8.6000e-02    4.263e-02  
  8.7000e-02     -0.1421   
  8.8000e-02      0.1563   
  8.9000e-02     -0.1563   
  9.0000e-02    8.527e-02  
[...]
 -8.2000e-02   -5.900e-05    7.149e-04    1.553e-04   -1.549e-03  
 -8.1000e-02   -5.828e-05    7.151e-04    1.537e-04   -1.577e-03  
 -8.0000e-02   -5.757e-05    7.152e-04    1.522e-04   -1.535e-03  
 -7.9000e-02   -5.685e-05    7.154e-04    1.506e-04   -1.592e-03  
 -7.8000e-02   -5.614e-05    7.155e-04    1.490e-04   -1.549e-03  
 -7.7000e-02   -5.542e-05    7.157e-04    1.475e-04   -1.577e-03  
 -7.6000e-02   -5.471e-05    7.158e-04    1.459e-04   -1.521e-03  
 -7.5000e-02   -5.399e-05    7.160e-04    1.443e-04   -1.592e-03  
 -7.4000e-02   -5.327e-05    7.161e-04    1.428e-04   -1.577e-03  
 -7.3000e-02   -5.256e-05    7.162e-04    1.412e-04   -1.521e-03  
 -7.2000e-02   -5.184e-05    7.164e-04    1.397e-04   -1.634e-03  
 -7.1000e-02   -5.112e-05    7.165e-04    1.381e-04   -1.521e-03  
 -7.0000e-02   -5.041e-05    7.167e-04    1.365e-04   -1.535e-03  
 -6.9000e-02   -4.969e-05    7.168e-04    1.349e-04   -1.606e-03  
 -6.8000e-02   -4.897e-05    7.169e-04    1.334e-04   -1.577e-03  
 -6.7000e-02   -4.826e-05    7.171e-04    1.318e-04   -1.563e-03  
 -6.6000e-02   -4.754e-05    7.172e-04    1.302e-04   -1.535e-03  
 -6.5000e-02   -4.682e-05    7.173e-04    1.287e-04   -1.606e-03  
 -6.4000e-02   -4.610e-05    7.174e-04    1.271e-04   -1.577e-03  
 -6.3000e-02   -4.539e-05    7.176e-04    1.255e-04   -1.549e-03  
 -6.2000e-02   -4.467e-05    7.177e-04    1.239e-04   -1.606e-03  
 -6.1000e-02   -4.395e-05    7.178e-04    1.223e-04   -1.592e-03  
 -6.0000e-02   -4.323e-05    7.179e-04    1.208e-04   -1.585e-03  
 -5.9000e-02   -4.251e-05    7.180e-04    1.192e-04   -1.556e-03  
 -5.8000e-02   -4.180e-05    7.182e-04    1.175e-04   -1.592e-03  
 -5.7000e-02   -4.108e-05    7.183e-04    1.160e-04   -1.641e-03  
 -5.6000e-02   -4.036e-05    7.184e-04    1.144e-04   -1.549e-03  
 -5.5000e-02   -3.964e-05    7.185e-04    1.128e-04   -1.613e-03  
 -5.4000e-02   -3.892e-05    7.186e-04    1.112e-04   -1.620e-03  
 -5.3000e-02   -3.820e-05    7.187e-04    1.095e-04   -1.599e-03  
 -5.2000e-02   -3.748e-05    7.188e-04    1.079e-04   -1.634e-03  
 -5.1000e-02   -3.677e-05    7.189e-04    1.063e-04   -1.592e-03  
 -5.0000e-02   -3.605e-05    7.190e-04    1.047e-04   -1.648e-03  
 -4.9000e-02   -3.533e-05    7.191e-04    1.030e-04   -1.613e-03  
 -4.8000e-02   -3.461e-05    7.192e-04    1.014e-04   -1.648e-03  
 -4.7000e-02   -3.389e-05    7.193e-04    9.972e-05   -1.641e-03  
 -4.6000e-02   -3.317e-05    7.194e-04    9.809e-05   -1.663e-03  
 -4.5000e-02   -3.245e-05    7.195e-04    9.640e-05   -1.634e-03  
 -4.4000e-02   -3.173e-05    7.196e-04    9.477e-05   -1.691e-03  
 -4.3000e-02   -3.101e-05    7.197e-04    9.305e-05   -1.634e-03  
 -4.2000e-02   -3.029e-05    7.198e-04    9.138e-05   -1.720e-03  
 -4.1000e-02   -2.957e-05    7.199e-04    8.966e-05   -1.670e-03  
 -4.0000e-02   -2.885e-05    7.200e-04    8.797e-05   -1.712e-03  
 -3.9000e-02   -2.813e-05    7.200e-04    8.625e-05   -1.698e-03  
 -3.8000e-02   -2.741e-05    7.201e-04    8.450e-05   -1.712e-03  
 -3.7000e-02   -2.669e-05    7.202e-04    8.276e-05   -1.755e-03  
 -3.6000e-02   -2.597e-05    7.203e-04    8.104e-05   -1.734e-03  
 -3.5000e-02   -2.525e-05    7.204e-04    7.925e-05   -1.727e-03  
 -3.4000e-02   -2.453e-05    7.204e-04    7.748e-05   -1.791e-03  
 -3.3000e-02   -2.381e-05    7.205e-04    7.568e-05   -1.769e-03  
 -3.2000e-02   -2.309e-05    7.206e-04    7.389e-05   -1.798e-03  
 -3.1000e-02   -2.237e-05    7.207e-04    7.203e-05   -1.791e-03  
 -3.0000e-02   -2.164e-05    7.207e-04    7.025e-05   -1.855e-03  
 -2.9000e-02   -2.092e-05    7.208e-04    6.837e-05   -1.783e-03  
 -2.8000e-02   -2.020e-05    7.209e-04    6.652e-05   -1.883e-03  
 -2.7000e-02   -1.948e-05    7.209e-04    6.462e-05   -1.851e-03  
 -2.6000e-02   -1.876e-05    7.210e-04    6.274e-05   -1.894e-03  
 -2.5000e-02   -1.804e-05    7.210e-04    6.080e-05   -1.883e-03  
 -2.4000e-02   -1.732e-05    7.211e-04    5.889e-05   -1.940e-03  
 -2.3000e-02   -1.660e-05    7.212e-04    5.692e-05   -1.915e-03  
 -2.2000e-02   -1.588e-05    7.212e-04    5.496e-05   -1.968e-03  
 -2.1000e-02   -1.515e-05    7.213e-04    5.296e-05   -1.954e-03  
 -2.0000e-02   -1.443e-05    7.213e-04    5.096e-05   -2.004e-03  
 -1.9000e-02   -1.371e-05    7.214e-04    4.892e-05   -1.997e-03  
 -1.8000e-02   -1.299e-05    7.214e-04    4.689e-05   -2.046e-03  
 -1.7000e-02   -1.227e-05    7.214e-04    4.480e-05   -2.029e-03  
 -1.6000e-02   -1.155e-05    7.215e-04    4.273e-05   -2.089e-03  
 -1.5000e-02   -1.083e-05    7.215e-04    4.061e-05   -2.071e-03  
 -1.4000e-02   -1.010e-05    7.216e-04    3.849e-05   -2.117e-03  
 -1.3000e-02   -9.383e-06    7.216e-04    3.634e-05   -2.121e-03  
 -1.2000e-02   -8.661e-06    7.216e-04    3.418e-05   -2.153e-03  
 -1.1000e-02   -7.940e-06    7.217e-04    3.199e-05   -2.162e-03  
 -1.0000e-02   -7.218e-06    7.217e-04    2.979e-05   -2.185e-03  
 -9.0000e-03   -6.496e-06    7.217e-04    2.757e-05   -2.199e-03  
 -8.0000e-03   -5.774e-06    7.217e-04    2.533e-05   -2.219e-03  
 -7.0000e-03   -5.053e-06    7.217e-04    2.309e-05   -2.238e-03  
 -6.0000e-03   -4.331e-06    7.218e-04    2.082e-05   -2.249e-03  
 -5.0000e-03   -3.609e-06    7.218e-04    1.854e-05   -2.263e-03  
 -4.0000e-03   -2.887e-06    7.218e-04    1.626e-05   -2.281e-03  
 -3.0000e-03   -2.165e-06    7.218e-04    1.395e-05   -2.286e-03  
 -2.0000e-03   -1.444e-06    7.218e-04    1.164e-05   -2.307e-03  
 -1.0000e-03   -7.218e-07    7.218e-04    9.323e-06   -2.306e-03  
    0.          1.867e-20    7.218e-04    6.997e-06   -2.320e-03  
  1.0000e-03    7.218e-07    7.218e-04    4.669e-06   -2.326e-03  
  2.0000e-03    1.444e-06    7.218e-04    2.335e-06   -2.328e-03  
  3.0000e-03    2.165e-06    7.218e-04   -1.111e-10   -2.334e-03  
  4.0000e-03    2.887e-06    7.218e-04   -2.335e-06   -2.335e-03  
  5.0000e-03    3.609e-06    7.218e-04   -4.668e-06   -2.334e-03  
  6.0000e-03    4.331e-06    7.218e-04   -6.997e-06   -2.333e-03  
  7.0000e-03    5.053e-06    7.218e-04   -9.322e-06   -2.329e-03  
  8.0000e-03    5.774e-06    7.218e-04   -1.164e-05   -2.325e-03  
  9.0000e-03    6.496e-06    7.218e-04   -1.395e-05   -2.318e-03  
  1.0000e-02    7.218e-06    7.217e-04   -1.625e-05   -2.313e-03  
  1.1000e-02    7.940e-06    7.217e-04   -1.854e-05   -2.298e-03  
  1.2000e-02    8.661e-06    7.217e-04   -2.082e-05   -2.292e-03  
  1.3000e-02    9.383e-06    7.217e-04   -2.309e-05   -2.280e-03  
  1.4000e-02    1.010e-05    7.217e-04   -2.534e-05   -2.263e-03  
  1.5000e-02    1.083e-05    7.216e-04   -2.757e-05   -2.252e-03  
  1.6000e-02    1.155e-05    7.216e-04   -2.979e-05   -2.231e-03  
  1.7000e-02    1.227e-05    7.216e-04   -3.199e-05   -2.222e-03  
  1.8000e-02    1.299e-05    7.215e-04   -3.418e-05   -2.201e-03  
  1.9000e-02    1.371e-05    7.215e-04   -3.634e-05   -2.183e-03  
  2.0000e-02    1.443e-05    7.214e-04   -3.848e-05   -2.165e-03  
  2.1000e-02    1.515e-05    7.214e-04   -4.062e-05   -2.141e-03  
  2.2000e-02    1.588e-05    7.214e-04   -4.272e-05   -2.137e-03  
  2.3000e-02    1.660e-05    7.213e-04   -4.481e-05   -2.107e-03  
  2.4000e-02    1.732e-05    7.213e-04   -4.688e-05   -2.082e-03  
  2.5000e-02    1.804e-05    7.212e-04   -4.892e-05   -2.075e-03  
  2.6000e-02    1.876e-05    7.212e-04   -5.095e-05   -2.043e-03  
  2.7000e-02    1.948e-05    7.211e-04   -5.296e-05   -2.029e-03  
  2.8000e-02    2.020e-05    7.210e-04   -5.497e-05   -2.011e-03  
  2.9000e-02    2.092e-05    7.210e-04   -5.692e-05   -2.004e-03  
  3.0000e-02    2.164e-05    7.209e-04   -5.888e-05   -1.950e-03  
  3.1000e-02    2.237e-05    7.209e-04   -6.083e-05   -1.958e-03  
  3.2000e-02    2.309e-05    7.208e-04   -6.272e-05   -1.954e-03  
  3.3000e-02    2.381e-05    7.207e-04   -6.464e-05   -1.886e-03  
  3.4000e-02    2.453e-05    7.207e-04   -6.651e-05   -1.922e-03  
  3.5000e-02    2.525e-05    7.206e-04   -6.837e-05   -1.872e-03  
  3.6000e-02    2.597e-05    7.205e-04   -7.024e-05   -1.858e-03  
  3.7000e-02    2.669e-05    7.204e-04   -7.205e-05   -1.869e-03  
  3.8000e-02    2.741e-05    7.204e-04   -7.388e-05   -1.812e-03  
  3.9000e-02    2.813e-05    7.203e-04   -7.569e-05   -1.833e-03  
  4.0000e-02    2.885e-05    7.202e-04   -7.749e-05   -1.805e-03  
  4.1000e-02    2.957e-05    7.201e-04   -7.923e-05   -1.805e-03  
  4.2000e-02    3.029e-05    7.200e-04   -8.104e-05   -1.734e-03  
  4.3000e-02    3.101e-05    7.200e-04   -8.276e-05   -1.812e-03  
  4.4000e-02    3.173e-05    7.199e-04   -8.453e-05   -1.727e-03  
  4.5000e-02    3.245e-05    7.198e-04   -8.622e-05   -1.762e-03  
  4.6000e-02    3.317e-05    7.197e-04   -8.798e-05   -1.698e-03  
  4.7000e-02    3.389e-05    7.196e-04   -8.966e-05   -1.755e-03  
  4.8000e-02    3.461e-05    7.195e-04   -9.136e-05   -1.677e-03  
  4.9000e-02    3.533e-05    7.194e-04   -9.309e-05   -1.705e-03  
  5.0000e-02    3.605e-05    7.193e-04   -9.470e-05   -1.727e-03  
  5.1000e-02    3.677e-05    7.192e-04   -9.645e-05   -1.613e-03  
  5.2000e-02    3.748e-05    7.191e-04   -9.807e-05   -1.748e-03  
  5.3000e-02    3.820e-05    7.190e-04   -9.972e-05   -1.620e-03  
  5.4000e-02    3.892e-05    7.189e-04   -1.014e-04   -1.656e-03  
  5.5000e-02    3.964e-05    7.188e-04   -1.030e-04   -1.677e-03  
  5.6000e-02    4.036e-05    7.187e-04   -1.047e-04   -1.620e-03  
  5.7000e-02    4.108e-05    7.186e-04   -1.063e-04   -1.648e-03  
  5.8000e-02    4.180e-05    7.185e-04   -1.079e-04   -1.634e-03  
  5.9000e-02    4.251e-05    7.184e-04   -1.096e-04   -1.606e-03  
  6.0000e-02    4.323e-05    7.183e-04   -1.112e-04   -1.648e-03  
  6.1000e-02    4.395e-05    7.182e-04   -1.128e-04   -1.606e-03  
  6.2000e-02    4.467e-05    7.180e-04   -1.144e-04   -1.592e-03  
  6.3000e-02    4.539e-05    7.179e-04   -1.160e-04   -1.634e-03  
  6.4000e-02    4.610e-05    7.178e-04   -1.176e-04   -1.585e-03  
  6.5000e-02    4.682e-05    7.177e-04   -1.192e-04   -1.599e-03  
  6.6000e-02    4.754e-05    7.176e-04   -1.208e-04   -1.592e-03  
  6.7000e-02    4.826e-05    7.174e-04   -1.224e-04   -1.592e-03  
  6.8000e-02    4.897e-05    7.173e-04   -1.239e-04   -1.620e-03  
  6.9000e-02    4.969e-05    7.172e-04   -1.255e-04   -1.542e-03  
  7.0000e-02    5.041e-05    7.171e-04   -1.271e-04   -1.606e-03  
  7.1000e-02    5.112e-05    7.169e-04   -1.287e-04   -1.549e-03  
  7.2000e-02    5.184e-05    7.168e-04   -1.303e-04   -1.592e-03  
  7.3000e-02    5.256e-05    7.167e-04   -1.318e-04   -1.606e-03  
  7.4000e-02    5.327e-05    7.165e-04   -1.334e-04   -1.535e-03  
  7.5000e-02    5.399e-05    7.164e-04   -1.349e-04   -1.606e-03  
  7.6000e-02    5.471e-05    7.162e-04   -1.365e-04   -1.535e-03  
  7.7000e-02    5.542e-05    7.161e-04   -1.381e-04   -1.592e-03  
  7.8000e-02    5.614e-05    7.160e-04   -1.397e-04   -1.563e-03  
  7.9000e-02    5.685e-05    7.158e-04   -1.412e-04   -1.549e-03  
  8.0000e-02    5.757e-05    7.157e-04   -1.428e-04   -1.577e-03  
  8.1000e-02    5.828e-05    7.155e-04   -1.443e-04   -1.592e-03  
  8.2000e-02    5.900e-05    7.154e-04   -1.459e-04   -1.492e-03  
  8.3000e-02    5.971e-05    7.152e-04   -1.475e-04   -1.634e-03  
  8.4000e-02    6.043e-05    7.151e-04   -1.490e-04   -1.549e-03  
  8.5000e-02    6.114e-05    7.149e-04   -1.506e-04   -1.535e-03  
  8.6000e-02    6.186e-05    7.148e-04   -1.522e-04   -1.563e-03  
  8.7000e-02    6.257e-05    7.146e-04   -1.537e-04   -1.592e-03  
  8.8000e-02    6.329e-05    7.145e-04   -1.553e-04   -1.535e-03  
  8.9000e-02    6.400e-05    7.143e-04   -1.568e-04   -1.592e-03  
  9.0000e-02    6.472e-05    7.141e-04   -1.585e-04   -1.506e-03  
  9.1000e-02    6.543e-05    7.140e-04   -1.600e-04   -1.634e-03  
  9.2000e-02    6.614e-05    7.138e-04   -1.615e-04   -1.535e-03  
  9.3000e-02    6.686e-05    7.137e-04   -1.631e-04   -1.521e-03  
  9.4000e-02    6.757e-05    7.135e-04   -1.647e-04   -1.634e-03  
  9.5000e-02    6.828e-05    7.133e-04   -1.662e-04   -1.535e-03  
  9.6000e-02    6.900e-05    7.132e-04   -1.678e-04   -1.549e-03  
  9.7000e-02    6.971e-05    7.130e-04   -1.694e-04   -1.592e-03  
  9.8000e-02    7.042e-05    7.128e-04   -1.710e-04   -1.549e-03  
  9.9000e-02    7.113e-05    7.126e-04   -1.725e-04   -1.634e-03  
    0.10000     7.185e-05    7.125e-04   -1.740e-04   -1.492e-03  
y
x

        volt    param      
                    gx4    
   -0.10000     1.862e-02  
 -9.9000e-02      3.8104   
 -9.8000e-02   -5.925e+03  
 -9.7000e-02   -1.218e+06  
 -9.6000e-02   -1.306e+08  
 -9.5000e-02    3.993e+08  
 -9.4000e-02   -4.019e+08  
 -9.3000e-02    1.344e+08  
 -9.2000e-02      0.1279   
 -9.1000e-02     -0.2132   
 -9.0000e-02      0.1990   
 -8.9000e-02   -9.948e-02  
 -8.8000e-02    2.353e-12  
 -8.7000e-02    7.105e-02  
 -8.6000e-02   -8.527e-02  
 -8.5000e-02    8.527e-02  
 -8.4000e-02     -0.1137   
 -8.3000e-02      0.1279   
 -8.2000e-02   -8.527e-02  
 -8.1000e-02    4.263e-02  
 -8.0000e-02   -2.842e-02  
 -7.9000e-02    4.263e-02  
 -7.8000e-02   -5.684e-02  
 -7.7000e-02    4.263e-02  
 -7.6000e-02   -2.842e-02  
 -7.5000e-02    5.684e-02  
 -7.4000e-02   -7.105e-02  
 -7.3000e-02    1.421e-02  
 -7.2000e-02    5.684e-02  
 -7.1000e-02     -0.1137   
 -7.0000e-02      0.1137   
 -6.9000e-02   -1.421e-02  
 -6.8000e-02   -7.105e-02  
 -6.7000e-02    2.842e-02  
 -6.6000e-02    1.421e-02  
 -6.5000e-02    2.842e-02  
 -6.4000e-02   -7.105e-02  
 -6.3000e-02    2.842e-02  
 -6.2000e-02    2.842e-02  
 -6.1000e-02   -5.684e-02  
 -6.0000e-02    1.421e-02  
 -5.9000e-02    7.105e-03  
 -5.8000e-02    2.842e-02  
 -5.7000e-02   -3.553e-02  
 -5.6000e-02   -4.974e-02  
 -5.5000e-02    9.237e-02  
 -5.4000e-02   -6.395e-02  
 -5.3000e-02   -7.105e-03  
 -5.2000e-02    2.132e-02  
 -5.1000e-02   -3.553e-02  
 -5.0000e-02    4.263e-02  
 -4.9000e-02   -5.684e-02  
 -4.8000e-02    3.553e-02  
 -4.7000e-02   -3.553e-02  
 -4.6000e-02    7.105e-03  
 -4.5000e-02   -2.132e-02  
 -4.4000e-02    2.842e-02  
 -4.3000e-02   -5.684e-02  
 -4.2000e-02    5.684e-02  
 -4.1000e-02   -8.527e-02  
 -4.0000e-02    4.974e-02  
 -3.9000e-02   -4.263e-02  
 -3.8000e-02    1.421e-02  
 -3.7000e-02   -1.421e-02  
 -3.6000e-02   -4.263e-02  
 -3.5000e-02    2.132e-02  
 -3.4000e-02    7.105e-03  
 -3.3000e-02   -6.395e-02  
 -3.2000e-02    2.132e-02  
 -3.1000e-02   -2.842e-02  
 -3.0000e-02    7.105e-03  
 -2.9000e-02   -6.395e-02  
 -2.8000e-02    7.105e-02  
 -2.7000e-02   -9.948e-02  
 -2.6000e-02    3.197e-02  
 -2.5000e-02   -4.263e-02  
 -2.4000e-02    1.066e-02  
 -2.3000e-02   -5.684e-02  
 -2.2000e-02    2.487e-02  
 -2.1000e-02   -5.329e-02  
 -2.0000e-02    1.421e-02  
 -1.9000e-02   -4.974e-02  
 -1.8000e-02    7.105e-03  
 -1.7000e-02   -4.974e-02  
 -1.6000e-02    1.776e-02  
 -1.5000e-02   -6.040e-02  
 -1.4000e-02    1.776e-02  
 -1.3000e-02   -4.619e-02  
 -1.2000e-02   -3.553e-03  
 -1.1000e-02   -3.197e-02  
 -1.0000e-02   -8.882e-03  
 -9.0000e-03   -2.309e-02  
 -8.0000e-03   -1.421e-02  
 -7.0000e-03   -1.954e-02  
 -6.0000e-03   -1.954e-02  
 -5.0000e-03   -1.066e-02  
 -4.0000e-03   -1.421e-02  
 -3.0000e-03   -1.776e-02  
 -2.0000e-03   -5.329e-03  
 -1.0000e-03   -2.043e-02  
    0.          4.441e-04  
  1.0000e-03   -1.377e-02  
  2.0000e-03   -5.773e-03  
  3.0000e-03   -2.776e-03  
  4.0000e-03   -5.329e-03  
  5.0000e-03   -1.110e-03  
  6.0000e-03    4.442e-04  
  7.0000e-03    1.221e-03  
  8.0000e-03    3.997e-03  
  9.0000e-03    4.441e-03  
  1.0000e-02    6.661e-03  
  1.1000e-02    4.885e-03  
  1.2000e-02    1.554e-02  
  1.3000e-02    6.217e-03  
  1.4000e-02    1.155e-02  
  1.5000e-02    1.688e-02  
  1.6000e-02    1.066e-02  
  1.7000e-02    2.132e-02  
  1.8000e-02    8.882e-03  
  1.9000e-02    2.132e-02  
  2.0000e-02    1.776e-02  
  2.1000e-02    1.776e-02  
  2.2000e-02    2.487e-02  
  2.3000e-02    3.553e-03  
  2.4000e-02    3.020e-02  
  2.5000e-02    2.487e-02  
  2.6000e-02    7.105e-03  
  2.7000e-02    3.197e-02  
  2.8000e-02    1.421e-02  
  2.9000e-02    1.776e-02  
  3.0000e-02    7.105e-03  
  3.1000e-02    5.329e-02  
  3.2000e-02   -7.105e-03  
  3.3000e-02    3.553e-03  
  3.4000e-02    6.750e-02  
  3.5000e-02   -3.553e-02  
  3.6000e-02    4.974e-02  
  3.7000e-02    1.421e-02  
  3.8000e-02   -1.066e-02  
  3.9000e-02    5.684e-02  
  4.0000e-02   -2.132e-02  
  4.1000e-02    2.842e-02  
  4.2000e-02      0.       
  4.3000e-02    7.105e-02  
  4.4000e-02   -7.816e-02  
  4.5000e-02    8.527e-02  
  4.6000e-02   -3.553e-02  
  4.7000e-02    6.395e-02  
  4.8000e-02   -5.684e-02  
  4.9000e-02    7.816e-02  
  5.0000e-02   -2.842e-02  
  5.1000e-02   -2.132e-02  
  5.2000e-02      0.1137   
  5.3000e-02     -0.1350   
  5.4000e-02      0.1279   
  5.5000e-02   -3.553e-02  
  5.6000e-02   -2.132e-02  
  5.7000e-02    5.684e-02  
  5.8000e-02   -2.842e-02  
  5.9000e-02    1.421e-02  
  6.0000e-02    2.842e-02  
  6.1000e-02   -4.263e-02  
  6.2000e-02    4.263e-02  
  6.3000e-02    1.421e-02  
  6.4000e-02   -4.263e-02  
  6.5000e-02    4.974e-02  
  6.6000e-02   -1.421e-02  
  6.7000e-02    7.105e-03  
  6.8000e-02      0.       
  6.9000e-02   -2.842e-02  
  7.0000e-02    7.816e-02  
  7.1000e-02   -6.395e-02  
  7.2000e-02    5.684e-02  
  7.3000e-02   -4.263e-02  
  7.4000e-02   -1.421e-02  
  7.5000e-02    7.105e-02  
  7.6000e-02   -7.105e-02  
  7.7000e-02    7.105e-02  
  7.8000e-02   -5.684e-02  
  7.9000e-02    2.842e-02  
  8.0000e-02    1.421e-02  
  8.1000e-02   -2.842e-02  
  8.2000e-02   -1.421e-02  
  8.3000e-02    9.948e-02  
  8.4000e-02     -0.1421   
  8.5000e-02    8.527e-02  
  8.6000e-02    1.421e-02  
  8.7000e-02   -2.842e-02  
  8.8000e-02   -2.842e-02  
  8.9000e-02    5.684e-02  
  9.0000e-02   -5.684e-02  
  9.1000e-02    8.527e-02  
  9.2000e-02     -0.1279   
  9.3000e-02    9.948e-02  
  9.4000e-02    1.421e-02  
  9.5000e-02     -0.1137   
  9.6000e-02    9.948e-02  
  9.7000e-02   -1.421e-02  
  9.8000e-02   -4.263e-02  
  9.9000e-02    4.263e-02  
    0.10000    -8.527e-02  
y
-----------------------------------------------

          ***** job concluded
1****** HSPICE -- G-2012.06 32-BIT (May 27 2012) RHEL32 ******                  
 ******  
 *sample netlist for bsim6

  ******  job statistics summary tnom=  25.000 temp=  25.000 *****
  
  
 ******  Machine Information  ******
 CPU:
 model name	: Intel(R) Xeon(R) CPU           E5645  @ 2.40GHz
 cpu MHz	: 2394.056
  
 OS:
 Linux version 2.6.32-504.3.3.el6.x86_64 (mockbuild@x86-028.build.eng.bos.redhat.com) (gcc version 4.4.7 20120313 (Red Hat 4.4.7-9) (GCC) ) #1 SMP Fri Dec 12 16:05:43 EST 2014


  ******  HSPICE Threads Information  ******

  Command Line Threads Count :     1
  Available CPU Count        :    12
  Actual Threads Count       :     1


  ******  Circuit Statistics  ******
  # nodes       =      17 # elements   =       5
  # resistors   =       0 # capacitors =       0 # inductors   =       0
  # mutual_inds =       0 # vccs       =       0 # vcvs        =       1
  # cccs        =       0 # ccvs       =       0 # volt_srcs   =       3
  # curr_srcs   =       0 # diodes     =       0 # bjts        =       0
  # jfets       =       0 # mosfets    =       0 # U elements  =       0
  # T elements  =       0 # W elements =       0 # B elements  =       0
  # S elements  =       0 # P elements =       0 # va device   =       1
  # vector_srcs =       0 # N elements =       0


  ******  Runtime Statistics (seconds)  ******

  analysis           time    # points   tot. iter  conv.iter
  op point           0.00           1           0
  dc sweep           0.20        1206        2424
  readin             2.47
  errchk             0.03
  setup              0.00
  output             0.01


           peak memory used        117.29 megabytes
           total cpu time            2.71 seconds
           total elapsed time        9.67 seconds
           job started at     10:14:36 07/28/2015
           job ended   at     10:14:46 07/28/2015


 lic: Release hspice token(s) 
 lic: total license checkout elapse time:        0.72(s)
