Using: /spice2/tools/AP_LINUX/hspice/J-2014.09-SP1/hspice/amd64/hspice gummel_pmos.sp
 ****** HSPICE -- J-2014.09-SP1 64-BIT (Nov 18 2014) RHEL64 ******              
  Copyright (C) 2014 Synopsys, Inc. All Rights Reserved.                        
  Unpublished-rights reserved under US copyright laws.
  This program is protected by law and is subject to the
  terms and conditions of the license agreement from Synopsys.
  Use of this program is your acceptance to be bound by the
  license agreement. HSPICE is the trademark of Synopsys, Inc.
  Input File: gummel_pmos.sp                                                    
  Command line options: gummel_pmos.sp
 lic:  
 lic: FLEXlm: v10.9.8 
 lic: USER:   hagarwal             HOSTNAME: ln14 
 lic: HOSTID: 00e081b4a366         PID:      28052 
 lic: Using FLEXlm license file: 
 lic: 27020@ln132 
 lic: Checkout 1 hspice 
 lic: License/Maintenance for hspice will expire on 25-feb-2016/2014.09 
 lic: 19(in_use)/400(total) FLOATING license(s) on SERVER 27020@ln132 
 lic:   
 Init: read install configuration file: /spice2/tools/AP_LINUX/hspice/J-2014.09-SP1/hspice/meta.cfg


*pvaI* current limit stacksize=10485760, set new limit stacksize=62914560
 --------------------------------------------------------
|                                                        |
|             Synopsys Unified Verilog-A (pVA)           |
|                                                        |
|                   Machine Name: ln14                   |
| Copyright (c) 2013 Synopsys Inc., All Rights Reserved. |
|                                                        |
 --------------------------------------------------------

libepva built by pvamgr synmake_pva_build  on Fri Oct 24 20:03:47 PDT 2014 - p4:3255372
HSP_HOME:   /spice2/tools/AP_LINUX/hspice/J-2014.09-SP1/hspice
HSP_ARCH:   amd64
HSP_GCC :   /spice2/tools/AP_LINUX/hspice/J-2014.09-SP1/hspice/GNU/rhel/gcc-4.7.2/bin/gcc -m64 
HSP_GCC_VER:   4.7.2
Working-Dir: /spice2/users/hagarwal/project/BSIM6
Args:        -p hsp -t spi -f gummel_pmos.pvadir/pvaHDL.lis -o gummel_pmos.pvadir 

### optimize mode ###
Args: pva -p hsp -t spi -f gummel_pmos.pvadir/pvaHDL.lis -o gummel_pmos.pvadir

Begin of pVA compiling on Mon Jul 20 16:06:25 2015	GTM/In-use: 0.5000/0.3951 MB

Parsing 'bsim6.va'
Parsing include file '/spice2/tools/AP_LINUX/hspice/J-2014.09-SP1/hspice/include/constants.vams'
Parsing include file '/spice2/tools/AP_LINUX/hspice/J-2014.09-SP1/hspice/include/disciplines.vams'

End of pVA compiling on Mon Jul 20 16:06:25 2015	GTM/In-use: 7.0000/6.8572 MB


End of build pVA DB on Mon Jul 20 16:06:25 2015	GTM/In-use: 8.8750/8.8659 MB

*pvaI* Module (bsim6): 4 unexpanded port, 0 init, 2615 behav, 63 contrib, 58/2705 expr(s)
*pvaI*        Has DIS( DT ST), 3/116 afCount, 0 MT, dlg, 7 node(s) maybe reduced
*pvaI*        0 const-G and 0 const-C, Has switchBranch, 22 bypassOpt
*pvaI*        generated 0 flow node(s) during compilation.

End of pVA genC on Mon Jul 20 16:06:54 2015	GTM/In-use: 22.5000/21.5214 MB

*pvaI* #### Total 519 line-size(s), 58/2705 expr(s), 63 contr(s), 0 init(s), 2615 behav(s), 4 port(s)

Generating gummel_pmos.pvadir/pvaRTL_amd64.so


End of submitting pVA gummel_pmos.pvadir/pvaRTL.mak on Mon Jul 20 16:06:54 2015	GTM/In-use: 22.5000/21.5215 MB


End of pVA elaboration on Mon Jul 20 16:06:54 2015	GTM/In-use: 22.5000/21.1455 MB

 Loading pVA library gummel_pmos.pvadir/pvaRTL_amd64.so...
1****** HSPICE -- J-2014.09-SP1 64-BIT (Nov 18 2014) RHEL64 ******              
 ******  
 *sample netlist for bsim6

 ****** circuit name directory
 circuit number to circuit name directory
   number circuitname                     definition         multiplier
        0 main circuit
        1 x1.                             bsim6(va)          1.00 
*pvaI* Module (bsim6): node 'bi' shorted with port 'b' (bsim6.va:4482)
*pvaI* Module (bsim6): node 'gi' shorted with port 'gm' (bsim6.va:4454)
*pvaI* Module (bsim6): node 'gm' shorted with port 'g' (bsim6.va:4437)
*pvaI* Module (bsim6): node 'sbulk' shorted with port 'b' (bsim6.va:4481)
*pvaI* Module (bsim6): node 'dbulk' shorted with port 'b' (bsim6.va:4483)
*pvaI*  5           nodes and 7 branches eliminated for module 'bsim6'
*pvaI* Creating VA module (bsim6) for instance X1
 **warning**: parameter GMIN for instance X1 does not exist in verilog-A module

  
      
 *****************************************************************
 ******  option summary
 ******
 runlvl  = 3         bypass  = 2         
  Opening plot unit= 15
 file=gummel_pmos.pa0

 ******  
 *sample netlist for bsim6

 ****** dc transfer curves tnom=  25.000 temp=  25.000 ******

   *** source        0:vgate =   -1.0000        ***

x

        volt    param        param        param        param      
                    ids          gx           gx2          gx3    
   -0.10000    -2.351e-05      0.           0.           0.       
 -9.9000e-02   -2.328e-05   -2.351e-02      0.           0.       
 -9.8000e-02   -2.305e-05    2.320e-04    -23.5126       0.       
 -9.7000e-02   -2.282e-05    2.321e-04     23.7447    -2.351e+04  
 -9.6000e-02   -2.258e-05    2.322e-04    8.106e-05    4.725e+04  
 -9.5000e-02   -2.235e-05    2.323e-04    8.058e-05   -2.374e+04  
 -9.4000e-02   -2.212e-05    2.323e-04    8.009e-05   -4.832e-04  
 -9.3000e-02   -2.189e-05    2.324e-04    7.964e-05   -4.832e-04  
 -9.2000e-02   -2.165e-05    2.325e-04    7.913e-05   -4.547e-04  
 -9.1000e-02   -2.142e-05    2.326e-04    7.866e-05   -5.116e-04  
 -9.0000e-02   -2.119e-05    2.327e-04    7.816e-05   -4.690e-04  
 -8.9000e-02   -2.096e-05    2.327e-04    7.768e-05   -4.974e-04  
 -8.8000e-02   -2.072e-05    2.328e-04    7.722e-05   -4.832e-04  
 -8.7000e-02   -2.049e-05    2.329e-04    7.668e-05   -4.547e-04  
 -8.6000e-02   -2.026e-05    2.330e-04    7.623e-05   -5.400e-04  
 -8.5000e-02   -2.002e-05    2.330e-04    7.573e-05   -4.547e-04  
 -8.4000e-02   -1.979e-05    2.331e-04    7.518e-05   -4.974e-04  
 -8.3000e-02   -1.956e-05    2.332e-04    7.476e-05   -5.542e-04  
 -8.2000e-02   -1.932e-05    2.333e-04    7.422e-05   -4.121e-04  
 -8.1000e-02   -1.909e-05    2.333e-04    7.371e-05   -5.400e-04  
 -8.0000e-02   -1.886e-05    2.334e-04    7.323e-05   -5.116e-04  
 -7.9000e-02   -1.862e-05    2.335e-04    7.266e-05   -4.832e-04  
 -7.8000e-02   -1.839e-05    2.336e-04    7.225e-05   -5.684e-04  
 -7.7000e-02   -1.816e-05    2.336e-04    7.169e-05   -4.121e-04  
 -7.6000e-02   -1.792e-05    2.337e-04    7.113e-05   -5.542e-04  
 -7.5000e-02   -1.769e-05    2.338e-04    7.068e-05   -5.684e-04  
 -7.4000e-02   -1.745e-05    2.338e-04    7.009e-05   -4.405e-04  
 -7.3000e-02   -1.722e-05    2.339e-04    6.965e-05   -5.969e-04  
 -7.2000e-02   -1.699e-05    2.340e-04    6.902e-05   -4.405e-04  
 -7.1000e-02   -1.675e-05    2.340e-04    6.858e-05   -6.253e-04  
 -7.0000e-02   -1.652e-05    2.341e-04    6.801e-05   -4.405e-04  
 -6.9000e-02   -1.628e-05    2.342e-04    6.746e-05   -5.684e-04  
 -6.8000e-02   -1.605e-05    2.342e-04    6.695e-05   -5.542e-04  
 -6.7000e-02   -1.582e-05    2.343e-04    6.641e-05   -5.116e-04  
 -6.6000e-02   -1.558e-05    2.344e-04    6.581e-05   -5.400e-04  
 -6.5000e-02   -1.535e-05    2.344e-04    6.536e-05   -5.969e-04  
 -6.4000e-02   -1.511e-05    2.345e-04    6.472e-05   -4.547e-04  
 -6.3000e-02   -1.488e-05    2.346e-04    6.418e-05   -6.395e-04  
 -6.2000e-02   -1.464e-05    2.346e-04    6.366e-05   -5.400e-04  
 -6.1000e-02   -1.441e-05    2.347e-04    6.303e-05   -5.116e-04  
 -6.0000e-02   -1.417e-05    2.348e-04    6.250e-05   -6.395e-04  
 -5.9000e-02   -1.394e-05    2.348e-04    6.192e-05   -5.258e-04  
 -5.8000e-02   -1.370e-05    2.349e-04    6.135e-05   -5.755e-04  
 -5.7000e-02   -1.347e-05    2.349e-04    6.076e-05   -5.755e-04  
 -5.6000e-02   -1.323e-05    2.350e-04    6.016e-05   -5.898e-04  
 -5.5000e-02   -1.300e-05    2.351e-04    5.957e-05   -5.969e-04  
 -5.4000e-02   -1.276e-05    2.351e-04    5.896e-05   -5.898e-04  
 -5.3000e-02   -1.253e-05    2.352e-04    5.839e-05   -6.111e-04  
 -5.2000e-02   -1.229e-05    2.352e-04    5.775e-05   -5.755e-04  
 -5.1000e-02   -1.206e-05    2.353e-04    5.712e-05   -6.324e-04  
 -5.0000e-02   -1.182e-05    2.353e-04    5.653e-05   -6.324e-04  
 -4.9000e-02   -1.159e-05    2.354e-04    5.587e-05   -5.898e-04  
 -4.8000e-02   -1.135e-05    2.355e-04    5.524e-05   -6.608e-04  
 -4.7000e-02   -1.112e-05    2.355e-04    5.460e-05   -6.324e-04  
 -4.6000e-02   -1.088e-05    2.356e-04    5.397e-05   -6.395e-04  
 -4.5000e-02   -1.064e-05    2.356e-04    5.328e-05   -6.324e-04  
 -4.4000e-02   -1.041e-05    2.357e-04    5.263e-05   -6.892e-04  
 -4.3000e-02   -1.017e-05    2.357e-04    5.196e-05   -6.466e-04  
 -4.2000e-02   -9.937e-06    2.358e-04    5.127e-05   -6.679e-04  
 -4.1000e-02   -9.701e-06    2.358e-04    5.063e-05   -6.892e-04  
 -4.0000e-02   -9.465e-06    2.359e-04    4.992e-05   -6.466e-04  
 -3.9000e-02   -9.229e-06    2.359e-04    4.923e-05   -7.105e-04  
 -3.8000e-02   -8.993e-06    2.360e-04    4.854e-05   -6.892e-04  
 -3.7000e-02   -8.757e-06    2.360e-04    4.790e-05   -6.892e-04  
 -3.6000e-02   -8.521e-06    2.361e-04    4.713e-05   -6.395e-04  
 -3.5000e-02   -8.285e-06    2.361e-04    4.651e-05   -7.674e-04  
 -3.4000e-02   -8.049e-06    2.361e-04    4.578e-05   -6.253e-04  
 -3.3000e-02   -7.812e-06    2.362e-04    4.508e-05   -7.248e-04  
 -3.2000e-02   -7.576e-06    2.362e-04    4.442e-05   -6.963e-04  
 -3.1000e-02   -7.340e-06    2.363e-04    4.369e-05   -6.608e-04  
 -3.0000e-02   -7.103e-06    2.363e-04    4.301e-05   -7.319e-04  
 -2.9000e-02   -6.867e-06    2.364e-04    4.230e-05   -6.786e-04  
 -2.8000e-02   -6.630e-06    2.364e-04    4.157e-05   -7.105e-04  
 -2.7000e-02   -6.394e-06    2.364e-04    4.082e-05   -7.319e-04  
 -2.6000e-02   -6.157e-06    2.365e-04    4.002e-05   -7.532e-04  
 -2.5000e-02   -5.921e-06    2.365e-04    3.920e-05   -7.994e-04  
 -2.4000e-02   -5.684e-06    2.366e-04    3.829e-05   -8.171e-04  
 -2.3000e-02   -5.448e-06    2.366e-04    3.731e-05   -9.095e-04  
 -2.2000e-02   -5.211e-06    2.366e-04    3.624e-05   -9.770e-04  
 -2.1000e-02   -4.974e-06    2.367e-04    3.505e-05   -1.076e-03  
 -2.0000e-02   -4.738e-06    2.367e-04    3.372e-05   -1.183e-03  
 -1.9000e-02   -4.501e-06    2.367e-04    3.227e-05   -1.332e-03  
 -1.8000e-02   -4.264e-06    2.368e-04    3.063e-05   -1.457e-03  
 -1.7000e-02   -4.027e-06    2.368e-04    2.884e-05   -1.638e-03  
 -1.6000e-02   -3.790e-06    2.368e-04    2.687e-05   -1.787e-03  
 -1.5000e-02   -3.554e-06    2.368e-04    2.477e-05   -1.968e-03  
 -1.4000e-02   -3.317e-06    2.368e-04    2.247e-05   -2.107e-03  
 -1.3000e-02   -3.080e-06    2.369e-04    2.009e-05   -2.295e-03  
 -1.2000e-02   -2.843e-06    2.369e-04    1.759e-05   -2.380e-03  
 -1.1000e-02   -2.606e-06    2.369e-04    1.507e-05   -2.499e-03  
 -1.0000e-02   -2.369e-06    2.369e-04    1.254e-05   -2.522e-03  
 -9.0000e-03   -2.132e-06    2.369e-04    1.006e-05   -2.528e-03  
 -8.0000e-03   -1.895e-06    2.369e-04    7.725e-06   -2.478e-03  
 -7.0000e-03   -1.658e-06    2.369e-04    5.565e-06   -2.338e-03  
 -6.0000e-03   -1.422e-06    2.369e-04    3.640e-06   -2.160e-03  
 -5.0000e-03   -1.185e-06    2.369e-04    2.006e-06   -1.926e-03  
 -4.0000e-03   -9.477e-07    2.369e-04    6.972e-07   -1.634e-03  
 -3.0000e-03   -7.108e-07    2.369e-04   -2.665e-07   -1.308e-03  
 -2.0000e-03   -4.738e-07    2.369e-04   -8.837e-07   -9.637e-04  
 -1.0000e-03   -2.369e-07    2.369e-04   -1.170e-06   -6.173e-04  
    0.         -1.087e-20    2.369e-04   -1.160e-06   -2.860e-04  
  1.0000e-03    2.369e-07    2.369e-04   -9.152e-07    9.992e-06  
  2.0000e-03    4.738e-07    2.369e-04   -5.009e-07    2.446e-04  
  3.0000e-03    7.108e-07    2.369e-04    2.221e-10    4.142e-04  
  4.0000e-03    9.477e-07    2.369e-04    5.009e-07    5.012e-04  
  5.0000e-03    1.185e-06    2.369e-04    9.149e-07    5.007e-04  
  6.0000e-03    1.422e-06    2.369e-04    1.159e-06    4.140e-04  
  7.0000e-03    1.658e-06    2.369e-04    1.170e-06    2.444e-04  
  8.0000e-03    1.895e-06    2.369e-04    8.837e-07    1.088e-05  
  9.0000e-03    2.132e-06    2.369e-04    2.656e-07   -2.864e-04  
  1.0000e-02    2.369e-06    2.369e-04   -6.963e-07   -6.182e-04  
  1.1000e-02    2.606e-06    2.369e-04   -2.005e-06   -9.619e-04  
  1.2000e-02    2.843e-06    2.369e-04   -3.641e-06   -1.308e-03  
  1.3000e-02    3.080e-06    2.369e-04   -5.564e-06   -1.636e-03  
  1.4000e-02    3.317e-06    2.369e-04   -7.725e-06   -1.923e-03  
  1.5000e-02    3.554e-06    2.369e-04   -1.007e-05   -2.162e-03  
  1.6000e-02    3.790e-06    2.369e-04   -1.253e-05   -2.345e-03  
  1.7000e-02    4.027e-06    2.368e-04   -1.507e-05   -2.464e-03  
  1.8000e-02    4.264e-06    2.368e-04   -1.760e-05   -2.533e-03  
  1.9000e-02    4.501e-06    2.368e-04   -2.008e-05   -2.531e-03  
  2.0000e-02    4.738e-06    2.368e-04   -2.249e-05   -2.482e-03  
  2.1000e-02    4.974e-06    2.368e-04   -2.475e-05   -2.409e-03  
  2.2000e-02    5.211e-06    2.367e-04   -2.687e-05   -2.263e-03  
  2.3000e-02    5.448e-06    2.367e-04   -2.884e-05   -2.121e-03  
  2.4000e-02    5.684e-06    2.367e-04   -3.063e-05   -1.972e-03  
  2.5000e-02    5.921e-06    2.366e-04   -3.227e-05   -1.783e-03  
  2.6000e-02    6.157e-06    2.366e-04   -3.373e-05   -1.638e-03  
  2.7000e-02    6.394e-06    2.366e-04   -3.505e-05   -1.464e-03  
  2.8000e-02    6.630e-06    2.365e-04   -3.624e-05   -1.318e-03  
  2.9000e-02    6.867e-06    2.365e-04   -3.731e-05   -1.190e-03  
  3.0000e-02    7.103e-06    2.364e-04   -3.830e-05   -1.073e-03  
  3.1000e-02    7.340e-06    2.364e-04   -3.919e-05   -9.877e-04  
  3.2000e-02    7.576e-06    2.364e-04   -4.003e-05   -8.917e-04  
  3.3000e-02    7.812e-06    2.363e-04   -4.080e-05   -8.420e-04  
  3.4000e-02    8.049e-06    2.363e-04   -4.158e-05   -7.709e-04  
  3.5000e-02    8.285e-06    2.362e-04   -4.231e-05   -7.780e-04  
  3.6000e-02    8.521e-06    2.362e-04   -4.300e-05   -7.248e-04  
  3.7000e-02    8.757e-06    2.361e-04   -4.371e-05   -6.928e-04  
  3.8000e-02    8.993e-06    2.361e-04   -4.441e-05   -7.070e-04  
  3.9000e-02    9.229e-06    2.361e-04   -4.510e-05   -7.034e-04  
  4.0000e-02    9.465e-06    2.360e-04   -4.577e-05   -6.892e-04  
  4.1000e-02    9.701e-06    2.360e-04   -4.651e-05   -6.679e-04  
  4.2000e-02    9.937e-06    2.359e-04   -4.715e-05   -7.390e-04  
  4.3000e-02    1.017e-05    2.359e-04   -4.787e-05   -6.466e-04  
  4.4000e-02    1.041e-05    2.358e-04   -4.855e-05   -7.176e-04  
  4.5000e-02    1.064e-05    2.358e-04   -4.923e-05   -6.821e-04  
  4.6000e-02    1.088e-05    2.357e-04   -4.993e-05   -6.821e-04  
  4.7000e-02    1.112e-05    2.357e-04   -5.058e-05   -6.963e-04  
  4.8000e-02    1.135e-05    2.356e-04   -5.129e-05   -6.537e-04  
  4.9000e-02    1.159e-05    2.356e-04   -5.196e-05   -7.105e-04  
  5.0000e-02    1.182e-05    2.355e-04   -5.263e-05   -6.679e-04  
  5.1000e-02    1.206e-05    2.355e-04   -5.328e-05   -6.679e-04  
  5.2000e-02    1.229e-05    2.354e-04   -5.396e-05   -6.537e-04  
  5.3000e-02    1.253e-05    2.353e-04   -5.460e-05   -6.750e-04  
  5.4000e-02    1.276e-05    2.353e-04   -5.523e-05   -6.395e-04  
  5.5000e-02    1.300e-05    2.352e-04   -5.588e-05   -6.324e-04  
  5.6000e-02    1.323e-05    2.352e-04   -5.650e-05   -6.537e-04  
  5.7000e-02    1.347e-05    2.351e-04   -5.716e-05   -6.182e-04  
  5.8000e-02    1.370e-05    2.351e-04   -5.772e-05   -6.608e-04  
  5.9000e-02    1.394e-05    2.350e-04   -5.839e-05   -5.613e-04  
  6.0000e-02    1.417e-05    2.349e-04   -5.895e-05   -6.679e-04  
  6.1000e-02    1.441e-05    2.349e-04   -5.959e-05   -5.613e-04  
  6.2000e-02    1.464e-05    2.348e-04   -6.015e-05   -6.324e-04  
  6.3000e-02    1.488e-05    2.348e-04   -6.079e-05   -5.613e-04  
  6.4000e-02    1.511e-05    2.347e-04   -6.132e-05   -6.395e-04  
  6.5000e-02    1.535e-05    2.346e-04   -6.192e-05   -5.329e-04  
  6.6000e-02    1.558e-05    2.346e-04   -6.249e-05   -6.040e-04  
  6.7000e-02    1.582e-05    2.345e-04   -6.307e-05   -5.684e-04  
  6.8000e-02    1.605e-05    2.344e-04   -6.361e-05   -5.755e-04  
  6.9000e-02    1.628e-05    2.344e-04   -6.422e-05   -5.400e-04  
  7.0000e-02    1.652e-05    2.343e-04   -6.472e-05   -6.111e-04  
  7.1000e-02    1.675e-05    2.342e-04   -6.531e-05   -4.974e-04  
  7.2000e-02    1.699e-05    2.342e-04   -6.585e-05   -5.969e-04  
  7.3000e-02    1.722e-05    2.341e-04   -6.639e-05   -5.400e-04  
  7.4000e-02    1.745e-05    2.340e-04   -6.693e-05   -5.400e-04  
  7.5000e-02    1.769e-05    2.340e-04   -6.749e-05   -5.400e-04  
  7.6000e-02    1.792e-05    2.339e-04   -6.801e-05   -5.542e-04  
  7.7000e-02    1.816e-05    2.338e-04   -6.855e-05   -5.258e-04  
  7.8000e-02    1.839e-05    2.338e-04   -6.904e-05   -5.400e-04  
  7.9000e-02    1.862e-05    2.337e-04   -6.963e-05   -4.832e-04  
  8.0000e-02    1.886e-05    2.336e-04   -7.013e-05   -5.969e-04  
  8.1000e-02    1.909e-05    2.336e-04   -7.064e-05   -4.974e-04  
  8.2000e-02    1.932e-05    2.335e-04   -7.114e-05   -5.116e-04  
  8.3000e-02    1.956e-05    2.334e-04   -7.171e-05   -4.974e-04  
  8.4000e-02    1.979e-05    2.333e-04   -7.222e-05   -5.684e-04  
  8.5000e-02    2.002e-05    2.333e-04   -7.267e-05   -5.116e-04  
  8.6000e-02    2.026e-05    2.332e-04   -7.323e-05   -4.547e-04  
  8.7000e-02    2.049e-05    2.331e-04   -7.371e-05   -5.542e-04  
  8.8000e-02    2.072e-05    2.330e-04   -7.421e-05   -4.832e-04  
  8.9000e-02    2.096e-05    2.330e-04   -7.478e-05   -4.974e-04  
  9.0000e-02    2.119e-05    2.329e-04   -7.518e-05   -5.684e-04  
  9.1000e-02    2.142e-05    2.328e-04   -7.576e-05   -3.979e-04  
  9.2000e-02    2.165e-05    2.327e-04   -7.618e-05   -5.826e-04  
  9.3000e-02    2.189e-05    2.327e-04   -7.668e-05   -4.263e-04  
  9.4000e-02    2.212e-05    2.326e-04   -7.726e-05   -4.974e-04  
  9.5000e-02    2.235e-05    2.325e-04   -7.763e-05   -5.826e-04  
  9.6000e-02    2.258e-05    2.324e-04   -7.819e-05   -3.695e-04  
  9.7000e-02    2.282e-05    2.323e-04   -7.864e-05   -5.542e-04  
  9.8000e-02    2.305e-05    2.323e-04   -7.911e-05   -4.547e-04  
  9.9000e-02    2.328e-05    2.322e-04   -7.965e-05   -4.690e-04  
    0.10000     2.351e-05    2.321e-04   -8.009e-05   -5.400e-04  
y
x

        volt    param      
                    gx4    
   -0.10000       0.       
 -9.9000e-02      0.       
 -9.8000e-02      0.       
 -9.7000e-02      0.       
 -9.6000e-02   -2.351e+07  
 -9.5000e-02    7.077e+07  
 -9.4000e-02   -7.100e+07  
 -9.3000e-02    2.374e+07  
 -9.2000e-02      0.       
 -9.1000e-02    2.842e-02  
 -9.0000e-02   -5.684e-02  
 -8.9000e-02    4.263e-02  
 -8.8000e-02   -2.842e-02  
 -8.7000e-02    1.421e-02  
 -8.6000e-02    2.842e-02  
 -8.5000e-02   -8.527e-02  
 -8.4000e-02    8.527e-02  
 -8.3000e-02   -4.263e-02  
 -8.2000e-02   -5.684e-02  
 -8.1000e-02      0.1421   
 -8.0000e-02     -0.1279   
 -7.9000e-02    2.842e-02  
 -7.8000e-02    2.842e-02  
 -7.7000e-02   -8.527e-02  
 -7.6000e-02      0.1563   
 -7.5000e-02     -0.1421   
 -7.4000e-02   -1.421e-02  
 -7.3000e-02      0.1279   
 -7.2000e-02     -0.1563   
 -7.1000e-02      0.1563   
 -7.0000e-02     -0.1847   
 -6.9000e-02      0.1847   
 -6.8000e-02     -0.1279   
 -6.7000e-02    1.421e-02  
 -6.6000e-02    4.263e-02  
 -6.5000e-02   -2.842e-02  
 -6.4000e-02   -5.684e-02  
 -6.3000e-02      0.1421   
 -6.2000e-02     -0.1847   
 -6.1000e-02    9.948e-02  
 -6.0000e-02    2.842e-02  
 -5.9000e-02     -0.1279   
 -5.8000e-02      0.1137   
 -5.7000e-02   -4.974e-02  
 -5.6000e-02   -1.626e-09  
 -5.5000e-02   -1.421e-02  
 -5.4000e-02   -7.105e-03  
 -5.3000e-02    7.105e-03  
 -5.2000e-02   -2.132e-02  
 -5.1000e-02    3.553e-02  
 -5.0000e-02   -5.684e-02  
 -4.9000e-02    6.830e-15  
 -4.8000e-02    4.263e-02  
 -4.7000e-02   -7.105e-02  
 -4.6000e-02    2.842e-02  
 -4.5000e-02   -7.105e-03  
 -4.4000e-02    7.105e-03  
 -4.3000e-02   -5.684e-02  
 -4.2000e-02    4.263e-02  
 -4.1000e-02   -2.132e-02  
 -4.0000e-02   -2.132e-02  
 -3.9000e-02    4.263e-02  
 -3.8000e-02   -6.395e-02  
 -3.7000e-02    2.132e-02  
 -3.6000e-02   -4.960e-09  
 -3.5000e-02    4.974e-02  
 -3.4000e-02     -0.1279   
 -3.3000e-02      0.1421   
 -3.2000e-02   -9.948e-02  
 -3.1000e-02    2.842e-02  
 -3.0000e-02    3.553e-02  
 -2.9000e-02   -7.105e-02  
 -2.8000e-02    5.329e-02  
 -2.7000e-02   -3.197e-02  
 -2.6000e-02   -2.132e-02  
 -2.5000e-02   -2.132e-02  
 -2.4000e-02   -4.619e-02  
 -2.3000e-02   -1.776e-02  
 -2.2000e-02   -9.237e-02  
 -2.1000e-02   -6.750e-02  
 -2.0000e-02   -9.948e-02  
 -1.9000e-02     -0.1066   
 -1.8000e-02     -0.1492   
 -1.7000e-02     -0.1243   
 -1.6000e-02     -0.1812   
 -1.5000e-02     -0.1492   
 -1.4000e-02     -0.1812   
 -1.3000e-02     -0.1386   
 -1.2000e-02     -0.1883   
 -1.1000e-02   -8.527e-02  
 -1.0000e-02     -0.1190   
 -9.0000e-03   -2.309e-02  
 -8.0000e-03   -5.329e-03  
 -7.0000e-03    4.974e-02  
 -6.0000e-03      0.1403   
 -5.0000e-03      0.1776   
 -4.0000e-03      0.2345   
 -3.0000e-03      0.2913   
 -2.0000e-03      0.3260   
 -1.0000e-03      0.3446   
    0.            0.3464   
  1.0000e-03      0.3313   
  2.0000e-03      0.2960   
  3.0000e-03      0.2346   
  4.0000e-03      0.1696   
  5.0000e-03    8.693e-02  
  6.0000e-03   -4.442e-04  
  7.0000e-03   -8.671e-02  
  8.0000e-03     -0.1696   
  9.0000e-03     -0.2335   
  1.0000e-02     -0.2973   
  1.1000e-02     -0.3317   
  1.2000e-02     -0.3437   
  1.3000e-02     -0.3464   
  1.4000e-02     -0.3277   
  1.5000e-02     -0.2869   
  1.6000e-02     -0.2389   
  1.7000e-02     -0.1830   
  1.8000e-02     -0.1190   
  1.9000e-02   -6.928e-02  
  2.0000e-02    1.776e-03  
  2.1000e-02    4.974e-02  
  2.2000e-02    7.283e-02  
  2.3000e-02      0.1457   
  2.4000e-02      0.1421   
  2.5000e-02      0.1492   
  2.6000e-02      0.1883   
  2.7000e-02      0.1457   
  2.8000e-02      0.1741   
  2.9000e-02      0.1457   
  3.0000e-02      0.1279   
  3.1000e-02      0.1172   
  3.2000e-02    8.527e-02  
  3.3000e-02    9.592e-02  
  3.4000e-02    4.974e-02  
  3.5000e-02    7.105e-02  
  3.6000e-02   -7.105e-03  
  3.7000e-02    5.329e-02  
  3.8000e-02    3.197e-02  
  3.9000e-02   -1.421e-02  
  4.0000e-02    3.553e-03  
  4.1000e-02    1.421e-02  
  4.2000e-02    2.132e-02  
  4.3000e-02   -7.105e-02  
  4.4000e-02    9.237e-02  
  4.5000e-02   -7.105e-02  
  4.6000e-02    3.553e-02  
  4.7000e-02   -1.343e-12  
  4.8000e-02   -1.421e-02  
  4.9000e-02    4.263e-02  
  5.0000e-02   -5.684e-02  
  5.1000e-02    4.263e-02  
  5.2000e-02      0.       
  5.3000e-02    1.421e-02  
  5.4000e-02   -2.132e-02  
  5.5000e-02    3.553e-02  
  5.6000e-02    7.105e-03  
  5.7000e-02   -2.132e-02  
  5.8000e-02    3.553e-02  
  5.9000e-02   -4.263e-02  
  6.0000e-02    9.948e-02  
  6.1000e-02     -0.1066   
  6.2000e-02      0.1066   
  6.3000e-02   -7.105e-02  
  6.4000e-02    7.105e-02  
  6.5000e-02   -7.816e-02  
  6.6000e-02      0.1066   
  6.7000e-02   -7.105e-02  
  6.8000e-02    3.553e-02  
  6.9000e-02   -7.105e-03  
  7.0000e-02    3.553e-02  
  7.1000e-02   -7.105e-02  
  7.2000e-02      0.1137   
  7.3000e-02   -9.948e-02  
  7.4000e-02    5.684e-02  
  7.5000e-02      0.       
  7.6000e-02      0.       
  7.7000e-02   -1.421e-02  
  7.8000e-02    2.842e-02  
  7.9000e-02   -1.421e-02  
  8.0000e-02    5.684e-02  
  8.1000e-02     -0.1137   
  8.2000e-02    9.948e-02  
  8.3000e-02   -1.421e-02  
  8.4000e-02    1.421e-02  
  8.5000e-02   -7.105e-02  
  8.6000e-02    5.684e-02  
  8.7000e-02    5.684e-02  
  8.8000e-02   -9.948e-02  
  8.9000e-02    7.105e-02  
  9.0000e-02   -1.421e-02  
  9.1000e-02   -7.105e-02  
  9.2000e-02      0.1705   
  9.3000e-02     -0.1847   
  9.4000e-02      0.1563   
  9.5000e-02   -7.105e-02  
  9.6000e-02   -8.527e-02  
  9.7000e-02      0.2132   
  9.8000e-02     -0.1847   
  9.9000e-02    9.948e-02  
    0.10000    -1.421e-02  
y
 ******  
 *sample netlist for bsim6

 ****** dc transfer curves tnom=  25.000 temp=  25.000 ******

   *** source        0:vgate =   -0.7000        ***

x

        volt    param        param        param        param      
                    ids          gx           gx2          gx3    
   -0.10000    -1.781e-05   -2.351e-04   -2.321e-03    8.009e-04  
 -9.9000e-02   -1.764e-05   -4.133e-02     -0.4672      -2.2410   
 -9.8000e-02   -1.747e-05    1.740e-04    -41.0924    -464.9130   
 -9.7000e-02   -1.729e-05    1.741e-04     41.5016    -4.062e+04  
 -9.6000e-02   -1.712e-05    1.742e-04    1.063e-04    8.259e+04  
 -9.5000e-02   -1.694e-05    1.743e-04    1.057e-04   -4.150e+04  
 -9.4000e-02   -1.677e-05    1.744e-04    1.052e-04   -6.111e-04  
 -9.3000e-02   -1.659e-05    1.745e-04    1.046e-04   -5.116e-04  
 -9.2000e-02   -1.642e-05    1.746e-04    1.041e-04   -5.684e-04  
 -9.1000e-02   -1.625e-05    1.747e-04    1.035e-04   -5.400e-04  
 -9.0000e-02   -1.607e-05    1.748e-04    1.029e-04   -5.969e-04  
 -8.9000e-02   -1.590e-05    1.749e-04    1.023e-04   -5.684e-04  
 -8.8000e-02   -1.572e-05    1.750e-04    1.018e-04   -5.542e-04  
 -8.7000e-02   -1.554e-05    1.751e-04    1.012e-04   -5.542e-04  
 -8.6000e-02   -1.537e-05    1.752e-04    1.006e-04   -5.826e-04  
 -8.5000e-02   -1.519e-05    1.753e-04    1.001e-04   -6.253e-04  
 -8.4000e-02   -1.502e-05    1.754e-04    9.946e-05   -4.974e-04  
 -8.3000e-02   -1.484e-05    1.755e-04    9.885e-05   -6.253e-04  
 -8.2000e-02   -1.467e-05    1.756e-04    9.828e-05   -6.111e-04  
 -8.1000e-02   -1.449e-05    1.757e-04    9.767e-05   -5.684e-04  
 -8.0000e-02   -1.432e-05    1.758e-04    9.709e-05   -6.111e-04  
 -7.9000e-02   -1.414e-05    1.759e-04    9.645e-05   -5.826e-04  
 -7.8000e-02   -1.396e-05    1.760e-04    9.588e-05   -6.395e-04  
 -7.7000e-02   -1.379e-05    1.761e-04    9.523e-05   -5.684e-04  
 -7.6000e-02   -1.361e-05    1.762e-04    9.462e-05   -6.537e-04  
 -7.5000e-02   -1.343e-05    1.763e-04    9.399e-05   -6.111e-04  
 -7.4000e-02   -1.326e-05    1.764e-04    9.338e-05   -6.253e-04  
 -7.3000e-02   -1.308e-05    1.765e-04    9.275e-05   -6.111e-04  
 -7.2000e-02   -1.290e-05    1.766e-04    9.206e-05   -6.253e-04  
 -7.1000e-02   -1.273e-05    1.767e-04    9.146e-05   -6.963e-04  
 -7.0000e-02   -1.255e-05    1.768e-04    9.079e-05   -5.969e-04  
 -6.9000e-02   -1.237e-05    1.769e-04    9.017e-05   -6.679e-04  
 -6.8000e-02   -1.220e-05    1.769e-04    8.951e-05   -6.253e-04  
 -6.7000e-02   -1.202e-05    1.770e-04    8.878e-05   -6.537e-04  
 -6.6000e-02   -1.184e-05    1.771e-04    8.822e-05   -7.390e-04  
 -6.5000e-02   -1.167e-05    1.772e-04    8.744e-05   -5.542e-04  
 -6.4000e-02   -1.149e-05    1.773e-04    8.686e-05   -7.816e-04  
 -6.3000e-02   -1.131e-05    1.774e-04    8.612e-05   -5.826e-04  
 -6.2000e-02   -1.113e-05    1.775e-04    8.541e-05   -7.390e-04  
 -6.1000e-02   -1.096e-05    1.775e-04    8.476e-05   -7.034e-04  
 -6.0000e-02   -1.078e-05    1.776e-04    8.402e-05   -6.537e-04  
 -5.9000e-02   -1.060e-05    1.777e-04    8.332e-05   -7.390e-04  
 -5.8000e-02   -1.042e-05    1.778e-04    8.262e-05   -7.034e-04  
 -5.7000e-02   -1.024e-05    1.779e-04    8.185e-05   -6.963e-04  
 -5.6000e-02   -1.007e-05    1.780e-04    8.117e-05   -7.674e-04  
 -5.5000e-02   -9.888e-06    1.780e-04    8.037e-05   -6.821e-04  
 -5.4000e-02   -9.710e-06    1.781e-04    7.967e-05   -8.029e-04  
 -5.3000e-02   -9.531e-06    1.782e-04    7.888e-05   -6.963e-04  
 -5.2000e-02   -9.353e-06    1.783e-04    7.812e-05   -7.887e-04  
 -5.1000e-02   -9.175e-06    1.783e-04    7.735e-05   -7.603e-04  
 -5.0000e-02   -8.996e-06    1.784e-04    7.657e-05   -7.745e-04  
 -4.9000e-02   -8.817e-06    1.785e-04    7.575e-05   -7.816e-04  
 -4.8000e-02   -8.639e-06    1.786e-04    7.496e-05   -8.171e-04  
 -4.7000e-02   -8.460e-06    1.786e-04    7.415e-05   -7.887e-04  
 -4.6000e-02   -8.281e-06    1.787e-04    7.331e-05   -8.171e-04  
 -4.5000e-02   -8.102e-06    1.788e-04    7.248e-05   -8.384e-04  
 -4.4000e-02   -7.924e-06    1.789e-04    7.164e-05   -8.242e-04  
 -4.3000e-02   -7.745e-06    1.789e-04    7.078e-05   -8.455e-04  
 -4.2000e-02   -7.565e-06    1.790e-04    6.995e-05   -8.527e-04  
 -4.1000e-02   -7.386e-06    1.791e-04    6.904e-05   -8.384e-04  
 -4.0000e-02   -7.207e-06    1.791e-04    6.819e-05   -9.024e-04  
 -3.9000e-02   -7.028e-06    1.792e-04    6.733e-05   -8.527e-04  
 -3.8000e-02   -6.849e-06    1.793e-04    6.641e-05   -8.598e-04  
 -3.7000e-02   -6.669e-06    1.793e-04    6.558e-05   -9.237e-04  
 -3.6000e-02   -6.490e-06    1.794e-04    6.469e-05   -8.313e-04  
 -3.5000e-02   -6.310e-06    1.795e-04    6.380e-05   -8.882e-04  
 -3.4000e-02   -6.131e-06    1.795e-04    6.292e-05   -8.882e-04  
 -3.3000e-02   -5.951e-06    1.796e-04    6.204e-05   -8.811e-04  
 -3.2000e-02   -5.771e-06    1.796e-04    6.118e-05   -8.811e-04  
 -3.1000e-02   -5.592e-06    1.797e-04    6.029e-05   -8.598e-04  
 -3.0000e-02   -5.412e-06    1.798e-04    5.940e-05   -8.882e-04  
 -2.9000e-02   -5.232e-06    1.798e-04    5.851e-05   -8.917e-04  
 -2.8000e-02   -5.052e-06    1.799e-04    5.756e-05   -8.846e-04  
 -2.7000e-02   -4.872e-06    1.799e-04    5.661e-05   -9.557e-04  
 -2.6000e-02   -4.692e-06    1.800e-04    5.559e-05   -9.486e-04  
 -2.5000e-02   -4.512e-06    1.800e-04    5.450e-05   -1.020e-03  
 -2.4000e-02   -4.332e-06    1.801e-04    5.330e-05   -1.091e-03  
 -2.3000e-02   -4.151e-06    1.801e-04    5.199e-05   -1.194e-03  
 -2.2000e-02   -3.971e-06    1.802e-04    5.055e-05   -1.311e-03  
 -2.1000e-02   -3.791e-06    1.802e-04    4.890e-05   -1.446e-03  
 -2.0000e-02   -3.611e-06    1.803e-04    4.707e-05   -1.652e-03  
 -1.9000e-02   -3.430e-06    1.803e-04    4.500e-05   -1.823e-03  
 -1.8000e-02   -3.250e-06    1.804e-04    4.269e-05   -2.071e-03  
 -1.7000e-02   -3.069e-06    1.804e-04    4.014e-05   -2.316e-03  
 -1.6000e-02   -2.889e-06    1.804e-04    3.729e-05   -2.551e-03  
 -1.5000e-02   -2.709e-06    1.805e-04    3.421e-05   -2.846e-03  
 -1.4000e-02   -2.528e-06    1.805e-04    3.092e-05   -3.080e-03  
 -1.3000e-02   -2.347e-06    1.805e-04    2.740e-05   -3.293e-03  
 -1.2000e-02   -2.167e-06    1.805e-04    2.377e-05   -3.512e-03  
 -1.1000e-02   -1.986e-06    1.806e-04    2.006e-05   -3.631e-03  
 -1.0000e-02   -1.806e-06    1.806e-04    1.636e-05   -3.709e-03  
 -9.0000e-03   -1.625e-06    1.806e-04    1.276e-05   -3.700e-03  
 -8.0000e-03   -1.445e-06    1.806e-04    9.345e-06   -3.602e-03  
 -7.0000e-03   -1.264e-06    1.806e-04    6.223e-06   -3.416e-03  
 -6.0000e-03   -1.083e-06    1.806e-04    3.472e-06   -3.123e-03  
 -5.0000e-03   -9.029e-07    1.806e-04    1.165e-06   -2.751e-03  
 -4.0000e-03   -7.223e-07    1.806e-04   -6.244e-07   -2.307e-03  
 -3.0000e-03   -5.417e-07    1.806e-04   -1.885e-06   -1.790e-03  
 -2.0000e-03   -3.611e-07    1.806e-04   -2.601e-06   -1.260e-03  
 -1.0000e-03   -1.806e-07    1.806e-04   -2.799e-06   -7.159e-04  
    0.          2.306e-21    1.806e-04   -2.543e-06   -1.981e-04  
  1.0000e-03    1.806e-07    1.806e-04   -1.913e-06    2.558e-04  
  2.0000e-03    3.611e-07    1.806e-04   -1.026e-06    6.296e-04  
  3.0000e-03    5.417e-07    1.806e-04   -4.608e-15    8.876e-04  
  4.0000e-03    7.223e-07    1.806e-04    1.025e-06    1.026e-03  
  5.0000e-03    9.029e-07    1.806e-04    1.914e-06    1.025e-03  
  6.0000e-03    1.083e-06    1.806e-04    2.543e-06    8.890e-04  
  7.0000e-03    1.264e-06    1.806e-04    2.799e-06    6.292e-04  
  8.0000e-03    1.445e-06    1.806e-04    2.599e-06    2.554e-04  
  9.0000e-03    1.625e-06    1.806e-04    1.885e-06   -1.998e-04  
  1.0000e-02    1.806e-06    1.806e-04    6.244e-07   -7.141e-04  
  1.1000e-02    1.986e-06    1.806e-04   -1.162e-06   -1.260e-03  
  1.2000e-02    2.167e-06    1.806e-04   -3.475e-06   -1.786e-03  
  1.3000e-02    2.347e-06    1.806e-04   -6.223e-06   -2.313e-03  
  1.4000e-02    2.528e-06    1.806e-04   -9.347e-06   -2.748e-03  
  1.5000e-02    2.709e-06    1.805e-04   -1.276e-05   -3.125e-03  
  1.6000e-02    2.889e-06    1.805e-04   -1.637e-05   -3.412e-03  
  1.7000e-02    3.069e-06    1.805e-04   -2.006e-05   -3.606e-03  
  1.8000e-02    3.250e-06    1.805e-04   -2.378e-05   -3.693e-03  
  1.9000e-02    3.430e-06    1.804e-04   -2.741e-05   -3.720e-03  
  2.0000e-02    3.611e-06    1.804e-04   -3.091e-05   -3.627e-03  
  2.1000e-02    3.791e-06    1.804e-04   -3.421e-05   -3.503e-03  
  2.2000e-02    3.971e-06    1.803e-04   -3.729e-05   -3.304e-03  
  2.3000e-02    4.151e-06    1.803e-04   -4.014e-05   -3.077e-03  
  2.4000e-02    4.332e-06    1.802e-04   -4.268e-05   -2.846e-03  
  2.5000e-02    4.512e-06    1.802e-04   -4.501e-05   -2.547e-03  
  2.6000e-02    4.692e-06    1.801e-04   -4.706e-05   -2.331e-03  
  2.7000e-02    4.872e-06    1.801e-04   -4.890e-05   -2.050e-03  
  2.8000e-02    5.052e-06    1.800e-04   -5.055e-05   -1.837e-03  
  2.9000e-02    5.232e-06    1.800e-04   -5.200e-05   -1.648e-03  
  3.0000e-02    5.412e-06    1.799e-04   -5.330e-05   -1.450e-03  
  3.1000e-02    5.592e-06    1.799e-04   -5.450e-05   -1.304e-03  
  3.2000e-02    5.771e-06    1.798e-04   -5.559e-05   -1.194e-03  
  3.3000e-02    5.951e-06    1.798e-04   -5.661e-05   -1.098e-03  
  3.4000e-02    6.131e-06    1.797e-04   -5.756e-05   -1.013e-03  
  3.5000e-02    6.310e-06    1.796e-04   -5.851e-05   -9.592e-04  
  3.6000e-02    6.490e-06    1.796e-04   -5.940e-05   -9.450e-04  
  3.7000e-02    6.669e-06    1.795e-04   -6.028e-05   -8.953e-04  
  3.8000e-02    6.849e-06    1.795e-04   -6.117e-05   -8.775e-04  
  3.9000e-02    7.028e-06    1.794e-04   -6.204e-05   -8.882e-04  
  4.0000e-02    7.207e-06    1.793e-04   -6.292e-05   -8.740e-04  
  4.1000e-02    7.386e-06    1.793e-04   -6.381e-05   -8.740e-04  
  4.2000e-02    7.565e-06    1.792e-04   -6.467e-05   -8.882e-04  
  4.3000e-02    7.745e-06    1.791e-04   -6.558e-05   -8.669e-04  
  4.4000e-02    7.924e-06    1.791e-04   -6.643e-05   -9.024e-04  
  4.5000e-02    8.102e-06    1.790e-04   -6.730e-05   -8.527e-04  
  4.6000e-02    8.281e-06    1.789e-04   -6.821e-05   -8.740e-04  
  4.7000e-02    8.460e-06    1.789e-04   -6.904e-05   -9.095e-04  
  4.8000e-02    8.639e-06    1.788e-04   -6.994e-05   -8.313e-04  
  4.9000e-02    8.817e-06    1.787e-04   -7.077e-05   -8.953e-04  
  5.0000e-02    8.996e-06    1.786e-04   -7.165e-05   -8.313e-04  
  5.1000e-02    9.175e-06    1.786e-04   -7.249e-05   -8.811e-04  
  5.2000e-02    9.353e-06    1.785e-04   -7.329e-05   -8.384e-04  
  5.3000e-02    9.531e-06    1.784e-04   -7.417e-05   -8.029e-04  
  5.4000e-02    9.710e-06    1.783e-04   -7.495e-05   -8.740e-04  
  5.5000e-02    9.888e-06    1.783e-04   -7.575e-05   -7.816e-04  
  5.6000e-02    1.007e-05    1.782e-04   -7.658e-05   -8.029e-04  
  5.7000e-02    1.024e-05    1.781e-04   -7.733e-05   -8.242e-04  
  5.8000e-02    1.042e-05    1.780e-04   -7.814e-05   -7.532e-04  
  5.9000e-02    1.060e-05    1.780e-04   -7.889e-05   -8.100e-04  
  6.0000e-02    1.078e-05    1.779e-04   -7.965e-05   -7.532e-04  
  6.1000e-02    1.096e-05    1.778e-04   -8.040e-05   -7.603e-04  
  6.2000e-02    1.113e-05    1.777e-04   -8.116e-05   -7.461e-04  
  6.3000e-02    1.131e-05    1.776e-04   -8.185e-05   -7.603e-04  
  6.4000e-02    1.149e-05    1.775e-04   -8.262e-05   -6.963e-04  
  6.5000e-02    1.167e-05    1.775e-04   -8.331e-05   -7.674e-04  
  6.6000e-02    1.184e-05    1.774e-04   -8.403e-05   -6.892e-04  
  6.7000e-02    1.202e-05    1.773e-04   -8.475e-05   -7.176e-04  
  6.8000e-02    1.220e-05    1.772e-04   -8.546e-05   -7.176e-04  
  6.9000e-02    1.237e-05    1.771e-04   -8.609e-05   -7.105e-04  
  7.0000e-02    1.255e-05    1.770e-04   -8.683e-05   -6.324e-04  
  7.1000e-02    1.273e-05    1.769e-04   -8.751e-05   -7.390e-04  
  7.2000e-02    1.290e-05    1.769e-04   -8.814e-05   -6.821e-04  
  7.3000e-02    1.308e-05    1.768e-04   -8.883e-05   -6.253e-04  
  7.4000e-02    1.326e-05    1.767e-04   -8.950e-05   -6.963e-04  
  7.5000e-02    1.343e-05    1.766e-04   -9.017e-05   -6.679e-04  
  7.6000e-02    1.361e-05    1.765e-04   -9.078e-05   -6.679e-04  
  7.7000e-02    1.379e-05    1.764e-04   -9.146e-05   -6.111e-04  
  7.8000e-02    1.396e-05    1.763e-04   -9.210e-05   -6.821e-04  
  7.9000e-02    1.414e-05    1.762e-04   -9.273e-05   -6.395e-04  
  8.0000e-02    1.432e-05    1.761e-04   -9.338e-05   -6.253e-04  
  8.1000e-02    1.449e-05    1.760e-04   -9.399e-05   -6.537e-04  
  8.2000e-02    1.467e-05    1.759e-04   -9.462e-05   -6.111e-04  
  8.3000e-02    1.484e-05    1.758e-04   -9.526e-05   -6.253e-04  
  8.4000e-02    1.502e-05    1.757e-04   -9.582e-05   -6.395e-04  
  8.5000e-02    1.519e-05    1.756e-04   -9.649e-05   -5.684e-04  
  8.6000e-02    1.537e-05    1.755e-04   -9.707e-05   -6.679e-04  
  8.7000e-02    1.554e-05    1.754e-04   -9.766e-05   -5.826e-04  
  8.8000e-02    1.572e-05    1.753e-04   -9.830e-05   -5.826e-04  
  8.9000e-02    1.590e-05    1.752e-04   -9.888e-05   -6.395e-04  
  9.0000e-02    1.607e-05    1.751e-04   -9.942e-05   -5.826e-04  
  9.1000e-02    1.625e-05    1.750e-04   -1.001e-04   -5.400e-04  
  9.2000e-02    1.642e-05    1.749e-04   -1.006e-04   -6.537e-04  
  9.3000e-02    1.659e-05    1.748e-04   -1.012e-04   -5.400e-04  
  9.4000e-02    1.677e-05    1.747e-04   -1.018e-04   -5.969e-04  
  9.5000e-02    1.694e-05    1.746e-04   -1.024e-04   -5.826e-04  
  9.6000e-02    1.712e-05    1.745e-04   -1.029e-04   -5.684e-04  
  9.7000e-02    1.729e-05    1.744e-04   -1.035e-04   -5.116e-04  
  9.8000e-02    1.747e-05    1.743e-04   -1.041e-04   -6.253e-04  
  9.9000e-02    1.764e-05    1.742e-04   -1.046e-04   -5.542e-04  
    0.10000     1.781e-05    1.741e-04   -1.051e-04   -5.826e-04  
y
x

        volt    param      
                    gx4    
   -0.10000     5.400e-03  
 -9.9000e-02      1.3409   
 -9.8000e-02   -2.241e+03  
 -9.7000e-02   -4.626e+05  
 -9.6000e-02   -4.016e+07  
 -9.5000e-02    1.232e+08  
 -9.4000e-02   -1.241e+08  
 -9.3000e-02    4.150e+07  
 -9.2000e-02    9.948e-02  
 -9.1000e-02   -5.684e-02  
 -9.0000e-02    2.842e-02  
 -8.9000e-02   -5.684e-02  
 -8.8000e-02    2.842e-02  
 -8.7000e-02    1.421e-02  
 -8.6000e-02   -7.317e-09  
 -8.5000e-02   -2.842e-02  
 -8.4000e-02   -4.263e-02  
 -8.3000e-02      0.1279   
 -8.2000e-02     -0.1279   
 -8.1000e-02    1.421e-02  
 -8.0000e-02    4.263e-02  
 -7.9000e-02   -4.263e-02  
 -7.8000e-02    2.842e-02  
 -7.7000e-02   -5.684e-02  
 -7.6000e-02    7.105e-02  
 -7.5000e-02   -8.527e-02  
 -7.4000e-02    4.263e-02  
 -7.3000e-02   -1.421e-02  
 -7.2000e-02    1.421e-02  
 -7.1000e-02   -1.421e-02  
 -7.0000e-02   -7.105e-02  
 -6.9000e-02    9.948e-02  
 -6.8000e-02   -7.105e-02  
 -6.7000e-02    4.263e-02  
 -6.6000e-02   -2.842e-02  
 -6.5000e-02   -8.527e-02  
 -6.4000e-02      0.1847   
 -6.3000e-02     -0.2274   
 -6.2000e-02      0.1990   
 -6.1000e-02     -0.1563   
 -6.0000e-02    3.553e-02  
 -5.9000e-02    4.974e-02  
 -5.8000e-02   -8.527e-02  
 -5.7000e-02    3.553e-02  
 -5.6000e-02    7.105e-03  
 -5.5000e-02   -7.105e-02  
 -5.4000e-02    8.527e-02  
 -5.3000e-02     -0.1208   
 -5.2000e-02      0.1066   
 -5.1000e-02   -9.237e-02  
 -5.0000e-02    2.842e-02  
 -4.9000e-02   -1.421e-02  
 -4.8000e-02   -7.105e-03  
 -4.7000e-02   -3.553e-02  
 -4.6000e-02    2.842e-02  
 -4.5000e-02   -2.842e-02  
 -4.4000e-02   -2.132e-02  
 -4.3000e-02    1.421e-02  
 -4.2000e-02   -2.132e-02  
 -4.1000e-02   -7.105e-03  
 -4.0000e-02    1.421e-02  
 -3.9000e-02   -6.395e-02  
 -3.8000e-02    4.974e-02  
 -3.7000e-02   -7.105e-03  
 -3.6000e-02   -6.395e-02  
 -3.5000e-02    9.237e-02  
 -3.4000e-02   -5.684e-02  
 -3.3000e-02      0.       
 -3.2000e-02    7.105e-03  
 -3.1000e-02      0.       
 -3.0000e-02    2.132e-02  
 -2.9000e-02   -2.842e-02  
 -2.8000e-02   -3.553e-03  
 -2.7000e-02    7.105e-03  
 -2.6000e-02   -7.105e-02  
 -2.5000e-02    7.105e-03  
 -2.4000e-02   -7.105e-02  
 -2.3000e-02   -7.105e-02  
 -2.2000e-02     -0.1030   
 -2.1000e-02     -0.1172   
 -2.0000e-02     -0.1350   
 -1.9000e-02     -0.2061   
 -1.8000e-02     -0.1705   
 -1.7000e-02     -0.2487   
 -1.6000e-02     -0.2451   
 -1.5000e-02     -0.2345   
 -1.4000e-02     -0.2949   
 -1.3000e-02     -0.2345   
 -1.2000e-02     -0.2132   
 -1.1000e-02     -0.2185   
 -1.0000e-02     -0.1190   
 -9.0000e-03   -7.816e-02  
 -8.0000e-03    8.882e-03  
 -7.0000e-03    9.770e-02  
 -6.0000e-03      0.1865   
 -5.0000e-03      0.2931   
 -4.0000e-03      0.3721   
 -3.0000e-03      0.4441   
 -2.0000e-03      0.5169   
 -1.0000e-03      0.5294   
    0.            0.5445   
  1.0000e-03      0.5178   
  2.0000e-03      0.4539   
  3.0000e-03      0.3738   
  4.0000e-03      0.2580   
  5.0000e-03      0.1380   
  6.0000e-03   -4.441e-04  
  7.0000e-03     -0.1362   
  8.0000e-03     -0.2598   
  9.0000e-03     -0.3738   
  1.0000e-02     -0.4552   
  1.1000e-02     -0.5143   
  1.2000e-02     -0.5462   
  1.3000e-02     -0.5258   
  1.4000e-02     -0.5267   
  1.5000e-02     -0.4352   
  1.6000e-02     -0.3766   
  1.7000e-02     -0.2878   
  1.8000e-02     -0.1936   
  1.9000e-02   -8.704e-02  
  2.0000e-02   -2.665e-02  
  2.1000e-02    9.237e-02  
  2.2000e-02      0.1243   
  2.3000e-02      0.1990   
  2.4000e-02      0.2274   
  2.5000e-02      0.2309   
  2.6000e-02      0.2984   
  2.7000e-02      0.2167   
  2.8000e-02      0.2807   
  2.9000e-02      0.2132   
  3.0000e-02      0.1883   
  3.1000e-02      0.1990   
  3.2000e-02      0.1457   
  3.3000e-02      0.1101   
  3.4000e-02    9.592e-02  
  3.5000e-02    8.527e-02  
  3.6000e-02    5.329e-02  
  3.7000e-02    1.421e-02  
  3.8000e-02    4.974e-02  
  3.9000e-02    1.776e-02  
  4.0000e-02   -1.066e-02  
  4.1000e-02    1.421e-02  
  4.2000e-02      0.       
  4.3000e-02   -1.421e-02  
  4.4000e-02    2.132e-02  
  4.5000e-02   -3.553e-02  
  4.6000e-02    4.974e-02  
  4.7000e-02   -2.132e-02  
  4.8000e-02   -3.553e-02  
  4.9000e-02    7.816e-02  
  5.0000e-02   -6.395e-02  
  5.1000e-02    6.395e-02  
  5.2000e-02   -4.974e-02  
  5.3000e-02    4.263e-02  
  5.4000e-02    3.553e-02  
  5.5000e-02   -7.105e-02  
  5.6000e-02    9.237e-02  
  5.7000e-02   -2.132e-02  
  5.8000e-02   -2.132e-02  
  5.9000e-02    7.105e-02  
  6.0000e-02   -5.684e-02  
  6.1000e-02    5.684e-02  
  6.2000e-02   -7.105e-03  
  6.3000e-02    1.421e-02  
  6.4000e-02   -1.421e-02  
  6.5000e-02    6.395e-02  
  6.6000e-02   -7.105e-02  
  6.7000e-02    7.816e-02  
  6.8000e-02   -2.842e-02  
  6.9000e-02   -1.355e-14  
  7.0000e-02    7.105e-03  
  7.1000e-02    7.816e-02  
  7.2000e-02     -0.1066   
  7.3000e-02    5.684e-02  
  7.4000e-02    5.684e-02  
  7.5000e-02   -7.105e-02  
  7.6000e-02    2.842e-02  
  7.7000e-02   -1.854e-14  
  7.8000e-02    5.684e-02  
  7.9000e-02   -7.105e-02  
  8.0000e-02    4.263e-02  
  8.1000e-02    1.421e-02  
  8.2000e-02   -2.842e-02  
  8.3000e-02    4.263e-02  
  8.4000e-02   -1.421e-02  
  8.5000e-02   -1.421e-02  
  8.6000e-02    7.105e-02  
  8.7000e-02   -9.948e-02  
  8.8000e-02    8.527e-02  
  8.9000e-02      0.       
  9.0000e-02   -5.684e-02  
  9.1000e-02    5.684e-02  
  9.2000e-02    4.263e-02  
  9.3000e-02     -0.1137   
  9.4000e-02      0.1137   
  9.5000e-02   -5.684e-02  
  9.6000e-02    1.421e-02  
  9.7000e-02    1.421e-02  
  9.8000e-02    5.684e-02  
  9.9000e-02     -0.1137   
    0.10000     7.105e-02  
y
 ******  
 *sample netlist for bsim6

 ****** dc transfer curves tnom=  25.000 temp=  25.000 ******

   *** source        0:vgate =   -0.4000        ***

x

        volt    param        param        param        param      
                    ids          gx           gx2          gx3    
   -0.10000    -9.336e-06   -1.781e-04   -1.741e-03    1.051e-03  
 -9.9000e-02   -9.247e-06   -2.715e-02     -0.3523      -1.6360   
 -9.8000e-02   -9.157e-06    8.932e-05    -26.9728    -350.5213   
 -9.7000e-02   -9.068e-06    8.941e-05     27.2403    -2.662e+04  
 -9.6000e-02   -8.978e-06    8.950e-05    9.182e-05    5.421e+04  
 -9.5000e-02   -8.889e-06    8.959e-05    9.184e-05   -2.724e+04  
 -9.4000e-02   -8.799e-06    8.968e-05    9.187e-05    2.842e-05  
 -9.3000e-02   -8.709e-06    8.978e-05    9.196e-05    2.842e-05  
 -9.2000e-02   -8.619e-06    8.987e-05    9.193e-05    8.527e-05  
 -9.1000e-02   -8.529e-06    8.996e-05    9.196e-05   -2.842e-05  
 -9.0000e-02   -8.439e-06    9.005e-05    9.193e-05    2.842e-05  
 -8.9000e-02   -8.349e-06    9.014e-05    9.193e-05   -2.842e-05  
 -8.8000e-02   -8.258e-06    9.024e-05    9.186e-05    1.246e-12  
 -8.7000e-02   -8.168e-06    9.033e-05    9.187e-05   -7.105e-05  
 -8.6000e-02   -8.077e-06    9.042e-05    9.177e-05    1.421e-05  
 -8.5000e-02   -7.987e-06    9.051e-05    9.165e-05   -9.948e-05  
 -8.4000e-02   -7.896e-06    9.060e-05    9.163e-05   -1.279e-04  
 -8.3000e-02   -7.805e-06    9.069e-05    9.146e-05   -1.421e-05  
 -8.2000e-02   -7.714e-06    9.079e-05    9.138e-05   -1.705e-04  
 -8.1000e-02   -7.623e-06    9.088e-05    9.123e-05   -8.527e-05  
 -8.0000e-02   -7.532e-06    9.097e-05    9.109e-05   -1.421e-04  
 -7.9000e-02   -7.441e-06    9.106e-05    9.092e-05   -1.421e-04  
 -7.8000e-02   -7.350e-06    9.115e-05    9.072e-05   -1.705e-04  
 -7.7000e-02   -7.259e-06    9.124e-05    9.055e-05   -1.990e-04  
 -7.6000e-02   -7.167e-06    9.133e-05    9.040e-05   -1.705e-04  
 -7.5000e-02   -7.076e-06    9.142e-05    9.010e-05   -1.563e-04  
 -7.4000e-02   -6.984e-06    9.151e-05    8.990e-05   -2.984e-04  
 -7.3000e-02   -6.892e-06    9.160e-05    8.967e-05   -1.990e-04  
 -7.2000e-02   -6.801e-06    9.169e-05    8.937e-05   -2.274e-04  
 -7.1000e-02   -6.709e-06    9.178e-05    8.916e-05   -2.984e-04  
 -7.0000e-02   -6.617e-06    9.186e-05    8.886e-05   -2.132e-04  
 -6.9000e-02   -6.525e-06    9.195e-05    8.853e-05   -2.984e-04  
 -6.8000e-02   -6.433e-06    9.204e-05    8.826e-05   -3.268e-04  
 -6.7000e-02   -6.340e-06    9.213e-05    8.789e-05   -2.700e-04  
 -6.6000e-02   -6.248e-06    9.222e-05    8.762e-05   -3.695e-04  
 -6.5000e-02   -6.156e-06    9.230e-05    8.723e-05   -2.700e-04  
 -6.4000e-02   -6.063e-06    9.239e-05    8.690e-05   -3.979e-04  
 -6.3000e-02   -5.971e-06    9.248e-05    8.652e-05   -3.268e-04  
 -6.2000e-02   -5.878e-06    9.256e-05    8.612e-05   -3.837e-04  
 -6.1000e-02   -5.785e-06    9.265e-05    8.571e-05   -3.979e-04  
 -6.0000e-02   -5.692e-06    9.273e-05    8.531e-05   -4.121e-04  
 -5.9000e-02   -5.600e-06    9.282e-05    8.487e-05   -3.908e-04  
 -5.8000e-02   -5.507e-06    9.290e-05    8.445e-05   -4.405e-04  
 -5.7000e-02   -5.413e-06    9.298e-05    8.397e-05   -4.263e-04  
 -5.6000e-02   -5.320e-06    9.307e-05    8.350e-05   -4.761e-04  
 -5.5000e-02   -5.227e-06    9.315e-05    8.301e-05   -4.761e-04  
 -5.4000e-02   -5.134e-06    9.323e-05    8.251e-05   -4.832e-04  
 -5.3000e-02   -5.040e-06    9.331e-05    8.200e-05   -5.045e-04  
 -5.2000e-02   -4.947e-06    9.339e-05    8.144e-05   -5.116e-04  
 -5.1000e-02   -4.853e-06    9.347e-05    8.091e-05   -5.542e-04  
 -5.0000e-02   -4.760e-06    9.355e-05    8.032e-05   -5.329e-04  
 -4.9000e-02   -4.666e-06    9.363e-05    7.977e-05   -5.898e-04  
 -4.8000e-02   -4.572e-06    9.371e-05    7.913e-05   -5.542e-04  
 -4.7000e-02   -4.478e-06    9.379e-05    7.854e-05   -6.395e-04  
 -4.6000e-02   -4.384e-06    9.387e-05    7.788e-05   -5.826e-04  
 -4.5000e-02   -4.290e-06    9.394e-05    7.726e-05   -6.608e-04  
 -4.4000e-02   -4.196e-06    9.402e-05    7.658e-05   -6.253e-04  
 -4.3000e-02   -4.102e-06    9.409e-05    7.590e-05   -6.821e-04  
 -4.2000e-02   -4.008e-06    9.417e-05    7.522e-05   -6.750e-04  
 -4.1000e-02   -3.914e-06    9.424e-05    7.454e-05   -6.821e-04  
 -4.0000e-02   -3.819e-06    9.432e-05    7.378e-05   -6.821e-04  
 -3.9000e-02   -3.725e-06    9.439e-05    7.311e-05   -7.532e-04  
 -3.8000e-02   -3.630e-06    9.446e-05    7.237e-05   -6.679e-04  
 -3.7000e-02   -3.536e-06    9.453e-05    7.164e-05   -7.461e-04  
 -3.6000e-02   -3.441e-06    9.460e-05    7.093e-05   -7.248e-04  
 -3.5000e-02   -3.346e-06    9.467e-05    7.022e-05   -7.176e-04  
 -3.4000e-02   -3.251e-06    9.474e-05    6.947e-05   -7.105e-04  
 -3.3000e-02   -3.157e-06    9.481e-05    6.875e-05   -7.461e-04  
 -3.2000e-02   -3.062e-06    9.487e-05    6.804e-05   -7.176e-04  
 -3.1000e-02   -2.967e-06    9.494e-05    6.731e-05   -7.105e-04  
 -3.0000e-02   -2.872e-06    9.501e-05    6.658e-05   -7.319e-04  
 -2.9000e-02   -2.776e-06    9.507e-05    6.581e-05   -7.248e-04  
 -2.8000e-02   -2.681e-06    9.514e-05    6.502e-05   -7.745e-04  
 -2.7000e-02   -2.586e-06    9.520e-05    6.418e-05   -7.887e-04  
 -2.6000e-02   -2.491e-06    9.526e-05    6.326e-05   -8.420e-04  
 -2.5000e-02   -2.395e-06    9.532e-05    6.223e-05   -9.237e-04  
 -2.4000e-02   -2.300e-06    9.538e-05    6.107e-05   -1.023e-03  
 -2.3000e-02   -2.204e-06    9.544e-05    5.974e-05   -1.158e-03  
 -2.2000e-02   -2.109e-06    9.550e-05    5.819e-05   -1.336e-03  
 -2.1000e-02   -2.013e-06    9.555e-05    5.641e-05   -1.545e-03  
 -2.0000e-02   -1.917e-06    9.560e-05    5.432e-05   -1.783e-03  
 -1.9000e-02   -1.822e-06    9.565e-05    5.191e-05   -2.085e-03  
 -1.8000e-02   -1.726e-06    9.570e-05    4.918e-05   -2.416e-03  
 -1.7000e-02   -1.630e-06    9.574e-05    4.604e-05   -2.728e-03  
 -1.6000e-02   -1.534e-06    9.578e-05    4.256e-05   -3.137e-03  
 -1.5000e-02   -1.439e-06    9.581e-05    3.872e-05   -3.482e-03  
 -1.4000e-02   -1.343e-06    9.584e-05    3.455e-05   -3.844e-03  
 -1.3000e-02   -1.247e-06    9.587e-05    3.010e-05   -4.171e-03  
 -1.2000e-02   -1.151e-06    9.589e-05    2.547e-05   -4.443e-03  
 -1.1000e-02   -1.055e-06    9.591e-05    2.073e-05   -4.629e-03  
 -1.0000e-02   -9.591e-07    9.592e-05    1.602e-05   -4.741e-03  
 -9.0000e-03   -8.632e-07    9.592e-05    1.143e-05   -4.716e-03  
 -8.0000e-03   -7.672e-07    9.593e-05    7.125e-06   -4.590e-03  
 -7.0000e-03   -6.713e-07    9.593e-05    3.224e-06   -4.302e-03  
 -6.0000e-03   -5.754e-07    9.592e-05   -1.377e-07   -3.901e-03  
 -5.0000e-03   -4.795e-07    9.592e-05   -2.864e-06   -3.362e-03  
 -4.0000e-03   -3.836e-07    9.591e-05   -4.859e-06   -2.727e-03  
 -3.0000e-03   -2.877e-07    9.591e-05   -6.088e-06   -1.995e-03  
 -2.0000e-03   -1.918e-07    9.590e-05   -6.542e-06   -1.228e-03  
 -1.0000e-03   -9.589e-08    9.590e-05   -6.263e-06   -4.547e-04  
    0.          1.270e-21    9.589e-05   -5.329e-06    2.798e-04  
  1.0000e-03    9.589e-08    9.589e-05   -3.865e-06    9.337e-04  
  2.0000e-03    1.918e-07    9.589e-05   -2.029e-06    1.464e-03  
  3.0000e-03    2.877e-07    9.589e-05   -2.534e-15    1.836e-03  
  4.0000e-03    3.836e-07    9.590e-05    2.029e-06    2.029e-03  
  5.0000e-03    4.795e-07    9.590e-05    3.866e-06    2.029e-03  
  6.0000e-03    5.754e-07    9.591e-05    5.329e-06    1.836e-03  
  7.0000e-03    6.713e-07    9.591e-05    6.261e-06    1.463e-03  
  8.0000e-03    7.672e-07    9.592e-05    6.544e-06    9.324e-04  
  9.0000e-03    8.632e-07    9.592e-05    6.087e-06    2.829e-04  
  1.0000e-02    9.591e-07    9.593e-05    4.857e-06   -4.574e-04  
  1.1000e-02    1.055e-06    9.593e-05    2.865e-06   -1.229e-03  
  1.2000e-02    1.151e-06    9.592e-05    1.386e-07   -1.992e-03  
  1.3000e-02    1.247e-06    9.592e-05   -3.222e-06   -2.727e-03  
  1.4000e-02    1.343e-06    9.591e-05   -7.125e-06   -3.361e-03  
  1.5000e-02    1.439e-06    9.589e-05   -1.143e-05   -3.903e-03  
  1.6000e-02    1.534e-06    9.587e-05   -1.602e-05   -4.306e-03  
  1.7000e-02    1.630e-06    9.584e-05   -2.073e-05   -4.585e-03  
  1.8000e-02    1.726e-06    9.581e-05   -2.547e-05   -4.716e-03  
  1.9000e-02    1.822e-06    9.578e-05   -3.011e-05   -4.743e-03  
  2.0000e-02    1.917e-06    9.574e-05   -3.455e-05   -4.635e-03  
  2.1000e-02    2.013e-06    9.570e-05   -3.871e-05   -4.437e-03  
  2.2000e-02    2.109e-06    9.565e-05   -4.257e-05   -4.164e-03  
  2.3000e-02    2.204e-06    9.560e-05   -4.604e-05   -3.855e-03  
  2.4000e-02    2.300e-06    9.555e-05   -4.918e-05   -3.478e-03  
  2.5000e-02    2.395e-06    9.550e-05   -5.192e-05   -3.133e-03  
  2.6000e-02    2.491e-06    9.544e-05   -5.432e-05   -2.739e-03  
  2.7000e-02    2.586e-06    9.538e-05   -5.641e-05   -2.409e-03  
  2.8000e-02    2.681e-06    9.532e-05   -5.819e-05   -2.082e-03  
  2.9000e-02    2.776e-06    9.526e-05   -5.976e-05   -1.780e-03  
  3.0000e-02    2.872e-06    9.520e-05   -6.106e-05   -1.570e-03  
  3.1000e-02    2.967e-06    9.514e-05   -6.224e-05   -1.300e-03  
  3.2000e-02    3.062e-06    9.507e-05   -6.326e-05   -1.183e-03  
  3.3000e-02    3.157e-06    9.501e-05   -6.418e-05   -1.016e-03  
  3.4000e-02    3.251e-06    9.494e-05   -6.502e-05   -9.237e-04  
  3.5000e-02    3.346e-06    9.487e-05   -6.581e-05   -8.420e-04  
  3.6000e-02    3.441e-06    9.481e-05   -6.658e-05   -7.887e-04  
  3.7000e-02    3.536e-06    9.474e-05   -6.731e-05   -7.745e-04  
  3.8000e-02    3.630e-06    9.467e-05   -6.803e-05   -7.248e-04  
  3.9000e-02    3.725e-06    9.460e-05   -6.876e-05   -7.248e-04  
  4.0000e-02    3.819e-06    9.453e-05   -6.948e-05   -7.248e-04  
  4.1000e-02    3.914e-06    9.446e-05   -7.019e-05   -7.248e-04  
  4.2000e-02    4.008e-06    9.439e-05   -7.093e-05   -7.105e-04  
  4.3000e-02    4.102e-06    9.432e-05   -7.164e-05   -7.390e-04  
  4.4000e-02    4.196e-06    9.424e-05   -7.238e-05   -7.105e-04  
  4.5000e-02    4.290e-06    9.417e-05   -7.309e-05   -7.319e-04  
  4.6000e-02    4.384e-06    9.409e-05   -7.380e-05   -7.176e-04  
  4.7000e-02    4.478e-06    9.402e-05   -7.453e-05   -7.105e-04  
  4.8000e-02    4.572e-06    9.394e-05   -7.521e-05   -7.248e-04  
  4.9000e-02    4.666e-06    9.387e-05   -7.591e-05   -6.821e-04  
  5.0000e-02    4.760e-06    9.379e-05   -7.658e-05   -6.963e-04  
  5.1000e-02    4.853e-06    9.371e-05   -7.724e-05   -6.750e-04  
  5.2000e-02    4.947e-06    9.363e-05   -7.790e-05   -6.608e-04  
  5.3000e-02    5.040e-06    9.355e-05   -7.853e-05   -6.537e-04  
  5.4000e-02    5.134e-06    9.347e-05   -7.915e-05   -6.324e-04  
  5.5000e-02    5.227e-06    9.339e-05   -7.974e-05   -6.182e-04  
  5.6000e-02    5.320e-06    9.331e-05   -8.032e-05   -5.969e-04  
  5.7000e-02    5.413e-06    9.323e-05   -8.092e-05   -5.755e-04  
  5.8000e-02    5.507e-06    9.315e-05   -8.144e-05   -6.040e-04  
  5.9000e-02    5.600e-06    9.307e-05   -8.200e-05   -5.116e-04  
  6.0000e-02    5.692e-06    9.298e-05   -8.251e-05   -5.613e-04  
  6.1000e-02    5.785e-06    9.290e-05   -8.301e-05   -5.116e-04  
  6.2000e-02    5.878e-06    9.282e-05   -8.349e-05   -5.045e-04  
  6.3000e-02    5.971e-06    9.273e-05   -8.399e-05   -4.761e-04  
  6.4000e-02    6.063e-06    9.265e-05   -8.445e-05   -4.974e-04  
  6.5000e-02    6.156e-06    9.256e-05   -8.486e-05   -4.619e-04  
  6.6000e-02    6.248e-06    9.248e-05   -8.532e-05   -4.121e-04  
  6.7000e-02    6.340e-06    9.239e-05   -8.571e-05   -4.619e-04  
  6.8000e-02    6.433e-06    9.230e-05   -8.613e-05   -3.837e-04  
  6.9000e-02    6.525e-06    9.222e-05   -8.647e-05   -4.263e-04  
  7.0000e-02    6.617e-06    9.213e-05   -8.693e-05   -3.411e-04  
  7.1000e-02    6.709e-06    9.204e-05   -8.725e-05   -4.547e-04  
  7.2000e-02    6.801e-06    9.195e-05   -8.758e-05   -3.268e-04  
  7.3000e-02    6.892e-06    9.186e-05   -8.791e-05   -3.268e-04  
  7.4000e-02    6.984e-06    9.178e-05   -8.826e-05   -3.268e-04  
  7.5000e-02    7.076e-06    9.169e-05   -8.853e-05   -3.553e-04  
  7.6000e-02    7.167e-06    9.160e-05   -8.886e-05   -2.700e-04  
  7.7000e-02    7.259e-06    9.151e-05   -8.914e-05   -3.268e-04  
  7.8000e-02    7.350e-06    9.142e-05   -8.940e-05   -2.842e-04  
  7.9000e-02    7.441e-06    9.133e-05   -8.966e-05   -2.558e-04  
  8.0000e-02    7.532e-06    9.124e-05   -8.991e-05   -2.558e-04  
  8.1000e-02    7.623e-06    9.115e-05   -9.008e-05   -2.558e-04  
  8.2000e-02    7.714e-06    9.106e-05   -9.038e-05   -1.705e-04  
  8.3000e-02    7.805e-06    9.097e-05   -9.055e-05   -2.984e-04  
  8.4000e-02    7.896e-06    9.088e-05   -9.076e-05   -1.705e-04  
  8.5000e-02    7.987e-06    9.079e-05   -9.088e-05   -2.132e-04  
  8.6000e-02    8.077e-06    9.069e-05   -9.111e-05   -1.137e-04  
  8.7000e-02    8.168e-06    9.060e-05   -9.122e-05   -2.274e-04  
  8.8000e-02    8.258e-06    9.051e-05   -9.139e-05   -1.137e-04  
  8.9000e-02    8.349e-06    9.042e-05   -9.148e-05   -1.705e-04  
  9.0000e-02    8.439e-06    9.033e-05   -9.160e-05   -8.527e-05  
  9.1000e-02    8.529e-06    9.024e-05   -9.167e-05   -1.279e-04  
  9.2000e-02    8.619e-06    9.014e-05   -9.177e-05   -7.105e-05  
  9.3000e-02    8.709e-06    9.005e-05   -9.184e-05   -9.948e-05  
  9.4000e-02    8.799e-06    8.996e-05   -9.186e-05   -7.105e-05  
  9.5000e-02    8.889e-06    8.987e-05   -9.197e-05   -1.421e-05  
  9.6000e-02    8.978e-06    8.978e-05   -9.189e-05   -1.137e-04  
  9.7000e-02    9.068e-06    8.968e-05   -9.197e-05    8.527e-05  
  9.8000e-02    9.157e-06    8.959e-05   -9.193e-05   -8.527e-05  
  9.9000e-02    9.247e-06    8.950e-05   -9.196e-05    4.263e-05  
    0.10000     9.336e-06    8.941e-05   -9.189e-05   -2.842e-05  
y
x

        volt    param      
                    gx4    
   -0.10000     5.826e-03  
 -9.9000e-02      1.6338   
 -9.8000e-02   -1.637e+03  
 -9.7000e-02   -3.488e+05  
 -9.6000e-02   -2.627e+07  
 -9.5000e-02    8.083e+07  
 -9.4000e-02   -8.145e+07  
 -9.3000e-02    2.724e+07  
 -9.2000e-02      0.       
 -9.1000e-02    5.684e-02  
 -9.0000e-02     -0.1137   
 -8.9000e-02    5.684e-02  
 -8.8000e-02   -5.684e-02  
 -8.7000e-02    2.842e-02  
 -8.6000e-02   -7.105e-02  
 -8.5000e-02    8.527e-02  
 -8.4000e-02     -0.1137   
 -8.3000e-02   -2.842e-02  
 -8.2000e-02      0.1137   
 -8.1000e-02     -0.1563   
 -8.0000e-02    8.527e-02  
 -7.9000e-02   -5.684e-02  
 -7.8000e-02      0.       
 -7.7000e-02   -2.842e-02  
 -7.6000e-02   -2.842e-02  
 -7.5000e-02    2.842e-02  
 -7.4000e-02    1.421e-02  
 -7.3000e-02     -0.1421   
 -7.2000e-02    9.948e-02  
 -7.1000e-02   -2.842e-02  
 -7.0000e-02   -7.105e-02  
 -6.9000e-02    8.527e-02  
 -6.8000e-02   -8.527e-02  
 -6.7000e-02   -2.842e-02  
 -6.6000e-02    5.684e-02  
 -6.5000e-02   -9.948e-02  
 -6.4000e-02    9.948e-02  
 -6.3000e-02     -0.1279   
 -6.2000e-02    7.105e-02  
 -6.1000e-02   -5.684e-02  
 -6.0000e-02   -1.421e-02  
 -5.9000e-02   -1.421e-02  
 -5.8000e-02    2.132e-02  
 -5.7000e-02   -4.974e-02  
 -5.6000e-02    1.421e-02  
 -5.5000e-02   -4.974e-02  
 -5.4000e-02    5.861e-13  
 -5.3000e-02   -7.105e-03  
 -5.2000e-02   -2.132e-02  
 -5.1000e-02   -7.105e-03  
 -5.0000e-02   -4.263e-02  
 -4.9000e-02    2.132e-02  
 -4.8000e-02   -5.684e-02  
 -4.7000e-02    3.553e-02  
 -4.6000e-02   -8.527e-02  
 -4.5000e-02    5.684e-02  
 -4.4000e-02   -7.816e-02  
 -4.3000e-02    3.553e-02  
 -4.2000e-02   -5.684e-02  
 -4.1000e-02    7.105e-03  
 -4.0000e-02   -7.105e-03  
 -3.9000e-02   -4.770e-15  
 -3.8000e-02   -7.105e-02  
 -3.7000e-02    8.527e-02  
 -3.6000e-02   -7.816e-02  
 -3.5000e-02    2.132e-02  
 -3.4000e-02    7.105e-03  
 -3.3000e-02    7.105e-03  
 -3.2000e-02   -3.553e-02  
 -3.1000e-02    2.842e-02  
 -3.0000e-02    7.105e-03  
 -2.9000e-02   -2.132e-02  
 -2.8000e-02    7.105e-03  
 -2.7000e-02   -4.974e-02  
 -2.6000e-02   -1.421e-02  
 -2.5000e-02   -5.329e-02  
 -2.4000e-02   -8.171e-02  
 -2.3000e-02   -9.948e-02  
 -2.2000e-02     -0.1350   
 -2.1000e-02     -0.1776   
 -2.0000e-02     -0.2096   
 -1.9000e-02     -0.2380   
 -1.8000e-02     -0.3020   
 -1.7000e-02     -0.3304   
 -1.6000e-02     -0.3126   
 -1.5000e-02     -0.4086   
 -1.4000e-02     -0.3446   
 -1.3000e-02     -0.3624   
 -1.2000e-02     -0.3268   
 -1.1000e-02     -0.2718   
 -1.0000e-02     -0.1865   
 -9.0000e-03     -0.1119   
 -8.0000e-03    2.487e-02  
 -7.0000e-03      0.1261   
 -6.0000e-03      0.2878   
 -5.0000e-03      0.4015   
 -4.0000e-03      0.5391   
 -3.0000e-03      0.6350   
 -2.0000e-03      0.7319   
 -1.0000e-03      0.7665   
    0.            0.7736   
  1.0000e-03      0.7345   
  2.0000e-03      0.6539   
  3.0000e-03      0.5299   
  4.0000e-03      0.3721   
  5.0000e-03      0.1937   
  6.0000e-03    7.603e-09  
  7.0000e-03     -0.1933   
  8.0000e-03     -0.3730   
  9.0000e-03     -0.5308   
  1.0000e-02     -0.6495   
  1.1000e-02     -0.7403   
  1.2000e-02     -0.7718   
  1.3000e-02     -0.7629   
  1.4000e-02     -0.7345   
  1.5000e-02     -0.6342   
  1.6000e-02     -0.5418   
  1.7000e-02     -0.4032   
  1.8000e-02     -0.2789   
  1.9000e-02     -0.1315   
  2.0000e-02   -2.665e-02  
  2.1000e-02      0.1084   
  2.2000e-02      0.1972   
  2.3000e-02      0.2736   
  2.4000e-02      0.3091   
  2.5000e-02      0.3766   
  2.6000e-02      0.3446   
  2.7000e-02      0.3944   
  2.8000e-02      0.3304   
  2.9000e-02      0.3268   
  3.0000e-02      0.3020   
  3.1000e-02      0.2096   
  3.2000e-02      0.2700   
  3.3000e-02      0.1172   
  3.4000e-02      0.1670   
  3.5000e-02    9.237e-02  
  3.6000e-02    8.171e-02  
  3.7000e-02    5.329e-02  
  3.8000e-02    1.421e-02  
  3.9000e-02    4.974e-02  
  4.0000e-02      0.       
  4.1000e-02    1.355e-14  
  4.2000e-02   -1.355e-14  
  4.3000e-02    1.421e-02  
  4.4000e-02   -2.842e-02  
  4.5000e-02    2.842e-02  
  4.6000e-02   -2.132e-02  
  4.7000e-02    1.421e-02  
  4.8000e-02    7.105e-03  
  4.9000e-02   -1.421e-02  
  5.0000e-02    4.263e-02  
  5.1000e-02   -1.421e-02  
  5.2000e-02    2.132e-02  
  5.3000e-02    1.421e-02  
  5.4000e-02    7.105e-03  
  5.5000e-02    2.132e-02  
  5.6000e-02    1.421e-02  
  5.7000e-02    2.132e-02  
  5.8000e-02    2.132e-02  
  5.9000e-02   -2.842e-02  
  6.0000e-02    9.237e-02  
  6.1000e-02   -4.974e-02  
  6.2000e-02    4.974e-02  
  6.3000e-02    7.105e-03  
  6.4000e-02    2.842e-02  
  6.5000e-02   -2.132e-02  
  6.6000e-02    3.553e-02  
  6.7000e-02    4.974e-02  
  6.8000e-02   -4.974e-02  
  6.9000e-02    7.816e-02  
  7.0000e-02   -4.263e-02  
  7.1000e-02    8.527e-02  
  7.2000e-02     -0.1137   
  7.3000e-02      0.1279   
  7.4000e-02      0.       
  7.5000e-02      0.       
  7.6000e-02   -2.842e-02  
  7.7000e-02    8.527e-02  
  7.8000e-02   -5.684e-02  
  7.9000e-02    4.263e-02  
  8.0000e-02    2.842e-02  
  8.1000e-02    7.644e-09  
  8.2000e-02   -2.548e-09  
  8.3000e-02    8.527e-02  
  8.4000e-02     -0.1279   
  8.5000e-02      0.1279   
  8.6000e-02   -4.263e-02  
  8.7000e-02    9.948e-02  
  8.8000e-02     -0.1137   
  8.9000e-02      0.1137   
  9.0000e-02   -5.684e-02  
  9.1000e-02    8.527e-02  
  9.2000e-02   -4.263e-02  
  9.3000e-02    5.684e-02  
  9.4000e-02   -2.842e-02  
  9.5000e-02    2.842e-02  
  9.6000e-02    5.684e-02  
  9.7000e-02   -9.948e-02  
  9.8000e-02      0.1990   
  9.9000e-02     -0.1705   
    0.10000       0.1279   
y

          ***** job concluded
1****** HSPICE -- J-2014.09-SP1 64-BIT (Nov 18 2014) RHEL64 ******              
 ******  
 *sample netlist for bsim6

 ****** job statistics summary tnom=  25.000 temp=  25.000 ******
  
  
 ******  Machine Information  ******
 CPU:
 model name	: Intel(R) Xeon(R) CPU           X5482  @ 3.20GHz
 cpu MHz	: 3192.053
  
 OS:
 Linux version 2.6.18-308.el5 (mockbuild@x86-007.build.bos.redhat.com) (gcc version 4.1.2 20080704 (Red Hat 4.1.2-50)) #1 SMP Fri Jan 27 17:17:51 EST 2012


  ******  HSPICE Threads Information  ******

  Command Line Threads Count :     1
  Available CPU Count        :     8
  Actual Threads Count       :     1


  ******  Circuit Statistics  ******
  # nodes       =      12 # elements   =       5
  # resistors   =       0 # capacitors =       0 # inductors   =       0
  # mutual_inds =       0 # vccs       =       0 # vcvs        =       1
  # cccs        =       0 # ccvs       =       0 # volt_srcs   =       3
  # curr_srcs   =       0 # diodes     =       0 # bjts        =       0
  # jfets       =       0 # mosfets    =       0 # U elements  =       0
  # T elements  =       0 # W elements =       0 # B elements  =       0
  # S elements  =       0 # P elements =       0 # va device   =       1
  # vector_srcs =       0 # N elements =       0


  ******  Runtime Statistics (seconds)  ******

  analysis           time    # points   tot. iter  conv.iter
  op point           0.00           1           0
  dc sweep           0.06         603        1210
  readin             2.10
  errchk             0.02
  setup              0.00
  output             0.00


           peak memory used        198.92 megabytes
           total cpu time            2.18 seconds
           total elapsed time       29.11 seconds
           job started at     16:06:25 07/20/2015
           job ended   at     16:06:54 07/20/2015


 lic: Release hspice token(s) 
 lic: total license checkout elapse time:        0.29(s)

			pVA malloc        2.65090 Mbytes        58910 times
			pVA calloc       26.09125 Mbytes       235161 times
			pVA realloc       7.85155 Mbytes         1844 times
			pVA valloc        0.00000 Mbytes            0 times
			pVA alloca        0.00000 Mbytes            0 times

			pVA TOT-MEM      36.59371 Mbytes       295915 times
			pVA free                                65205 times
			pVA strdup        0.00000 Mbytes            0 times


pVA concluded on Mon Jul 20 16:06:54 2015	GTM/In-use: 22.5000/19.6997 MB

