 ****** HSPICE -- G-2012.06 32-BIT (May 27 2012) RHEL32 ******                  
  Copyright (C) 2012 Synopsys, Inc. All Rights Reserved.                        
  Unpublished-rights reserved under US copyright laws.
  This program is protected by law and is subject to the
  terms and conditions of the license agreement from Synopsys.
  Use of this program is your acceptance to be bound by the
  license agreement. HSPICE is the trademark of Synopsys, Inc.
  Input File: idvg_pmos.sp                                                      
  Command line options: -hdlpath ../code -i idvg_pmos.sp -o idvg_pmos
 lic:  
 lic: FLEXlm: v10.8 
 lic: USER:   sourabh              HOSTNAME: bwrcrdsl-3.eecs.berkeley.edu 
 lic: HOSTID:                      PID:      23755 
 lic: Using FLEXlm license file: 
 lic: 1701@sunv40z-1.eecs.berkeley.edu 
 lic: Checkout 1 hspice 
 lic: License/Maintenance for hspice will expire on 19-dec-2015/2014.09 
 lic: 1(in_use)/50(total) FLOATING license(s) on SERVER sunv40z-1.eecs.berkeley.
 lic:   
 Init: read install configuration file: /tools/synopsys/hspice/G-2012.06/hspice/meta.cfg
 **info** *pvaI* Module (bsim6): 4 unexpanded port, 0 init, 2615 behav, 63 contrib, 58/2705 expr(s)

 **info** *pvaI* Resizing DB size for v count = 1

 **info** *pvaI*        Has DIS (DT ST SB), 3 afCount

 **info** *pvaI*        0 const-G and 0 const-C, Has switch branch.

 **info** *pvaI* Module (bsim6): generated 7 flow node(s) during compilation.

 **info** *pvaI* #### Total 519 line-size(s), 58 expr(s), 63 contr(s), 0 init(s), 2615 behav(s), 4 port(s)

 Loading pVA library idvg_pmos.pvadir/pvaRTL_linux.so...
1****** HSPICE -- G-2012.06 32-BIT (May 27 2012) RHEL32 ******                  
 ******  
 *sample netlist for bsim6

  ******  circuit name directory
 circuit number to circuit name directory
   number circuitname                     definition         multiplier
        0 main circuit
        1 x1.                             bsim6(va)          1.00 
 **info** *pvaI* Creating Verilog-A module 'bsim6' for X1

  
      
 *****************************************************************
 ******  option summary
 ******
 runlvl  = 3         bypass  = 2         
  Opening plot unit= 15
 file=idvg_pmos.pa0                                                            

 ******  
 *sample netlist for bsim6

  ******  dc transfer curves tnom=  25.000 temp=  25.000 *****

   *** source        0:vb =    0.            ***

x

        volt    param        param        param      
                    ids          gm           gm2    
   -1.30000     6.740e-06      0.           0.       
   -1.29000     6.716e-06    6.740e-04      0.       
   -1.28000     6.690e-06   -2.475e-06    6.740e-02  
   -1.27000     6.665e-06   -2.513e-06   -6.765e-02  
   -1.26000     6.639e-06   -2.552e-06   -3.834e-06  
   -1.25000     6.613e-06   -2.592e-06   -3.891e-06  
   -1.24000     6.586e-06   -2.632e-06   -3.949e-06  
   -1.23000     6.559e-06   -2.672e-06   -4.008e-06  
   -1.22000     6.531e-06   -2.714e-06   -4.067e-06  
   -1.21000     6.503e-06   -2.755e-06   -4.128e-06  
   -1.20000     6.475e-06   -2.798e-06   -4.190e-06  
   -1.19000     6.446e-06   -2.841e-06   -4.252e-06  
   -1.18000     6.417e-06   -2.885e-06   -4.315e-06  
   -1.17000     6.387e-06   -2.929e-06   -4.379e-06  
   -1.16000     6.357e-06   -2.974e-06   -4.444e-06  
   -1.15000     6.326e-06   -3.020e-06   -4.510e-06  
   -1.14000     6.295e-06   -3.067e-06   -4.577e-06  
   -1.13000     6.263e-06   -3.114e-06   -4.643e-06  
   -1.12000     6.231e-06   -3.162e-06   -4.712e-06  
   -1.11000     6.199e-06   -3.210e-06   -4.782e-06  
   -1.10000     6.166e-06   -3.259e-06   -4.851e-06  
   -1.09000     6.132e-06   -3.309e-06   -4.923e-06  
   -1.08000     6.098e-06   -3.360e-06   -4.994e-06  
   -1.07000     6.063e-06   -3.411e-06   -5.067e-06  
   -1.06000     6.028e-06   -3.463e-06   -5.141e-06  
   -1.05000     5.992e-06   -3.516e-06   -5.215e-06  
   -1.04000     5.956e-06   -3.570e-06   -5.291e-06  
   -1.03000     5.919e-06   -3.624e-06   -5.366e-06  
   -1.02000     5.882e-06   -3.680e-06   -5.444e-06  
   -1.01000     5.844e-06   -3.736e-06   -5.521e-06  
   -1.00000     5.806e-06   -3.792e-06   -5.600e-06  
   -0.99000     5.766e-06   -3.850e-06   -5.679e-06  
   -0.98000     5.727e-06   -3.908e-06   -5.759e-06  
   -0.97000     5.687e-06   -3.968e-06   -5.839e-06  
   -0.96000     5.646e-06   -4.028e-06   -5.921e-06  
   -0.95000     5.604e-06   -4.089e-06   -6.003e-06  
   -0.94000     5.562e-06   -4.150e-06   -6.086e-06  
   -0.93000     5.519e-06   -4.213e-06   -6.169e-06  
   -0.92000     5.476e-06   -4.276e-06   -6.253e-06  
   -0.91000     5.432e-06   -4.340e-06   -6.337e-06  
   -0.90000     5.387e-06   -4.405e-06   -6.421e-06  
   -0.89000     5.342e-06   -4.471e-06   -6.507e-06  
   -0.88000     5.296e-06   -4.538e-06   -6.592e-06  
   -0.87000     5.249e-06   -4.606e-06   -6.678e-06  
   -0.86000     5.201e-06   -4.674e-06   -6.764e-06  
   -0.85000     5.153e-06   -4.744e-06   -6.850e-06  
   -0.84000     5.104e-06   -4.814e-06   -6.936e-06  
   -0.83000     5.055e-06   -4.885e-06   -7.022e-06  
   -0.82000     5.005e-06   -4.957e-06   -7.108e-06  
   -0.81000     4.954e-06   -5.030e-06   -7.194e-06  
   -0.80000     4.902e-06   -5.103e-06   -7.279e-06  
   -0.79000     4.849e-06   -5.178e-06   -7.363e-06  
   -0.78000     4.796e-06   -5.253e-06   -7.448e-06  
   -0.77000     4.742e-06   -5.329e-06   -7.531e-06  
   -0.76000     4.687e-06   -5.406e-06   -7.614e-06  
   -0.75000     4.631e-06   -5.484e-06   -7.695e-06  
   -0.74000     4.575e-06   -5.562e-06   -7.775e-06  
   -0.73000     4.518e-06   -5.642e-06   -7.853e-06  
   -0.72000     4.460e-06   -5.722e-06   -7.930e-06  
   -0.71000     4.401e-06   -5.803e-06   -8.005e-06  
   -0.70000     4.341e-06   -5.884e-06   -8.078e-06  
   -0.69000     4.281e-06   -5.966e-06   -8.147e-06  
   -0.68000     4.219e-06   -6.049e-06   -8.215e-06  
   -0.67000     4.157e-06   -6.132e-06   -8.279e-06  
   -0.66000     4.094e-06   -6.216e-06   -8.340e-06  
   -0.65000     4.030e-06   -6.301e-06   -8.397e-06  
   -0.64000     3.966e-06   -6.386e-06   -8.449e-06  
   -0.63000     3.900e-06   -6.471e-06   -8.497e-06  
   -0.62000     3.834e-06   -6.557e-06   -8.540e-06  
   -0.61000     3.766e-06   -6.643e-06   -8.576e-06  
   -0.60000     3.698e-06   -6.729e-06   -8.607e-06  
   -0.59000     3.629e-06   -6.816e-06   -8.630e-06  
   -0.58000     3.559e-06   -6.902e-06   -8.646e-06  
   -0.57000     3.489e-06   -6.989e-06   -8.653e-06  
   -0.56000     3.417e-06   -7.075e-06   -8.651e-06  
   -0.55000     3.345e-06   -7.161e-06   -8.639e-06  
   -0.54000     3.271e-06   -7.247e-06   -8.616e-06  
   -0.53000     3.197e-06   -7.332e-06   -8.580e-06  
   -0.52000     3.122e-06   -7.417e-06   -8.531e-06  
   -0.51000     3.046e-06   -7.501e-06   -8.467e-06  
   -0.50000     2.970e-06   -7.584e-06   -8.386e-06  
   -0.49000     2.892e-06   -7.666e-06   -8.288e-06  
   -0.48000     2.814e-06   -7.746e-06   -8.171e-06  
   -0.47000     2.735e-06   -7.825e-06   -8.031e-06  
   -0.46000     2.655e-06   -7.901e-06   -7.868e-06  
   -0.45000     2.575e-06   -7.976e-06   -7.679e-06  
   -0.44000     2.493e-06   -8.048e-06   -7.462e-06  
   -0.43000     2.412e-06   -8.117e-06   -7.212e-06  
   -0.42000     2.329e-06   -8.183e-06   -6.927e-06  
   -0.41000     2.246e-06   -8.246e-06   -6.604e-06  
   -0.40000     2.162e-06   -8.304e-06   -6.237e-06  
   -0.39000     2.078e-06   -8.358e-06   -5.824e-06  
   -0.38000     1.994e-06   -8.406e-06   -5.357e-06  
   -0.37000     1.909e-06   -8.448e-06   -4.832e-06  
   -0.36000     1.824e-06   -8.484e-06   -4.242e-06  
   -0.35000     1.739e-06   -8.513e-06   -3.580e-06  
   -0.34000     1.653e-06   -8.533e-06   -2.836e-06  
   -0.33000     1.568e-06   -8.543e-06   -2.003e-06  
   -0.32000     1.482e-06   -8.544e-06   -1.069e-06  
   -0.31000     1.397e-06   -8.532e-06   -2.274e-08  
   -0.30000     1.313e-06   -8.507e-06    1.149e-06  
   -0.29000     1.229e-06   -8.468e-06    2.461e-06  
   -0.28000     1.145e-06   -8.412e-06    3.931e-06  
   -0.27000     1.063e-06   -8.338e-06    5.574e-06  
   -0.26000     9.815e-07   -8.244e-06    7.412e-06  
   -0.25000     9.017e-07   -8.126e-06    9.463e-06  
   -0.24000     8.235e-07   -7.983e-06    1.175e-05  
   -0.23000     7.474e-07   -7.812e-06    1.429e-05  
   -0.22000     6.737e-07   -7.611e-06    1.710e-05  
   -0.21000     6.026e-07   -7.375e-06    2.018e-05  
   -0.20000     5.347e-07   -7.104e-06    2.352e-05  
   -0.19000     4.702e-07   -6.796e-06    2.709e-05  
   -0.18000     4.095e-07   -6.449e-06    3.084e-05  
   -0.17000     3.531e-07   -6.065e-06    3.467e-05  
   -0.16000     3.012e-07   -5.645e-06    3.845e-05  
   -0.15000     2.540e-07   -5.193e-06    4.202e-05  
   -0.14000     2.118e-07   -4.716e-06    4.517e-05  
   -0.13000     1.745e-07   -4.224e-06    4.766e-05  
   -0.12000     1.422e-07   -3.726e-06    4.926e-05  
   -0.11000     1.145e-07   -3.235e-06    4.977e-05  
   -0.10000     9.127e-08   -2.764e-06    4.906e-05  
 -9.0000e-02    7.205e-08   -2.324e-06    4.712e-05  
 -8.0000e-02    5.637e-08   -1.923e-06    4.405e-05  
 -7.0000e-02    4.377e-08   -1.567e-06    4.009e-05  
 -6.0000e-02    3.376e-08   -1.260e-06    3.554e-05  
 -5.0000e-02    2.590e-08   -1.001e-06    3.072e-05  
 -4.0000e-02    1.978e-08   -7.861e-07    2.595e-05  
 -3.0000e-02    1.506e-08   -6.119e-07    2.146e-05  
 -2.0000e-02    1.143e-08   -4.727e-07    1.742e-05  
 -1.0000e-02    8.654e-09   -3.629e-07    1.392e-05  
    0.          6.544e-09   -2.772e-07    1.098e-05  
  1.0000e-02    4.943e-09   -2.110e-07    8.565e-06  
  2.0000e-02    3.730e-09   -1.601e-07    6.624e-06  
  3.0000e-02    2.814e-09   -1.212e-07    5.088e-06  
  4.0000e-02    2.122e-09   -9.166e-08    3.888e-06  
  5.0000e-02    1.600e-09   -6.921e-08    2.959e-06  
  6.0000e-02    1.206e-09   -5.222e-08    2.245e-06  
  7.0000e-02    9.090e-10   -3.937e-08    1.699e-06  
  8.0000e-02    6.853e-10   -2.968e-08    1.284e-06  
  9.0000e-02    5.168e-10   -2.237e-08    9.695e-07  
    0.10000     3.897e-10   -1.686e-08    7.312e-07  
    0.11000     2.940e-10   -1.270e-08    5.511e-07  
    0.12000     2.219e-10   -9.573e-09    4.153e-07  
    0.13000     1.674e-10   -7.216e-09    3.129e-07  
    0.14000     1.264e-10   -5.441e-09    2.357e-07  
    0.15000     9.548e-11   -4.103e-09    1.776e-07  
    0.16000     7.212e-11   -3.094e-09    1.338e-07  
    0.17000     5.451e-11   -2.336e-09    1.008e-07  
    0.18000     4.120e-11   -1.761e-09    7.589e-08  
    0.19000     3.116e-11   -1.331e-09    5.748e-08  
    0.20000     2.358e-11   -1.004e-09    4.299e-08  
    0.21000     1.784e-11   -7.589e-10    3.268e-08  
    0.22000     1.351e-11   -5.734e-10    2.451e-08  
    0.23000     1.023e-11   -4.334e-10    1.855e-08  
    0.24000     7.745e-12   -3.276e-10    1.400e-08  
    0.25000     5.869e-12   -2.487e-10    1.059e-08  
    0.26000     4.455e-12   -1.876e-10    7.887e-09  
    0.27000     3.382e-12   -1.414e-10    6.111e-09  
    0.28000     2.558e-12   -1.073e-10    4.619e-09  
    0.29000     1.947e-12   -8.242e-11    3.411e-09  
    0.30000     1.471e-12   -6.111e-11    2.487e-09  
    0.31000     1.116e-12   -4.761e-11    2.132e-09  
    0.32000     8.455e-13   -3.553e-11    1.350e-09  
    0.33000     6.466e-13   -2.700e-11    1.208e-09  
    0.34000     4.832e-13   -1.990e-11    8.527e-10  
    0.35000     3.766e-13   -1.634e-11    7.105e-10  
    0.36000     2.913e-13   -1.066e-11    3.553e-10  
    0.37000     2.203e-13   -8.527e-12    5.684e-10  
    0.38000     1.634e-13   -7.105e-12    2.132e-10  
    0.39000     1.350e-13   -5.684e-12    1.421e-10  
    0.40000     9.237e-14   -2.842e-12    1.421e-10  
    0.41000     7.105e-14   -4.263e-12    2.842e-10  
    0.42000     4.974e-14   -2.132e-12   -1.421e-10  
    0.43000     4.263e-14   -2.132e-12    2.132e-10  
    0.44000     2.842e-14   -7.105e-13      0.       
    0.45000     2.842e-14   -1.421e-12    1.421e-10  
    0.46000     2.132e-14      0.        -7.105e-11  
    0.47000     1.421e-14   -7.105e-13    1.421e-10  
    0.48000     1.421e-14   -7.105e-13   -7.105e-11  
    0.49000     1.421e-14      0.           0.       
    0.50000     1.421e-14      0.         7.105e-11  
    0.51000       0.           0.           0.       
    0.52000       0.        -1.421e-12      0.       
    0.53000       0.           0.        -1.421e-10  
    0.54000       0.           0.         1.421e-10  
    0.55000       0.           0.           0.       
    0.56000       0.           0.           0.       
    0.57000       0.           0.           0.       
    0.58000       0.           0.           0.       
    0.59000       0.           0.           0.       
    0.60000       0.           0.           0.       
    0.61000       0.           0.           0.       
    0.62000       0.           0.           0.       
    0.63000       0.           0.           0.       
    0.64000       0.           0.           0.       
    0.65000       0.           0.           0.       
    0.66000       0.           0.           0.       
    0.67000       0.           0.           0.       
    0.68000       0.           0.           0.       
    0.69000       0.           0.           0.       
    0.70000       0.           0.           0.       
    0.71000       0.           0.           0.       
    0.72000       0.           0.           0.       
    0.73000       0.           0.           0.       
    0.74000       0.           0.           0.       
    0.75000       0.           0.           0.       
    0.76000       0.           0.           0.       
    0.77000       0.           0.           0.       
    0.78000       0.           0.           0.       
    0.79000       0.           0.           0.       
    0.80000       0.           0.           0.       
    0.81000       0.           0.           0.       
    0.82000       0.           0.           0.       
    0.83000       0.           0.           0.       
    0.84000       0.           0.           0.       
    0.85000       0.           0.           0.       
    0.86000       0.           0.           0.       
    0.87000       0.           0.           0.       
    0.88000       0.           0.           0.       
    0.89000       0.           0.           0.       
    0.90000       0.           0.           0.       
    0.91000       0.           0.           0.       
    0.92000       0.           0.           0.       
    0.93000       0.           0.           0.       
    0.94000       0.           0.           0.       
    0.95000       0.           0.           0.       
    0.96000       0.           0.           0.       
    0.97000       0.           0.           0.       
    0.98000       0.           0.           0.       
    0.99000       0.           0.           0.       
    1.00000       0.           0.           0.       
    1.01000       0.           0.           0.       
    1.02000       0.           0.           0.       
    1.03000       0.           0.           0.       
    1.04000       0.           0.           0.       
    1.05000       0.           0.           0.       
    1.06000       0.           0.           0.       
    1.07000       0.           0.           0.       
    1.08000       0.           0.           0.       
    1.09000       0.           0.           0.       
    1.10000       0.           0.           0.       
    1.11000       0.           0.           0.       
    1.12000       0.           0.           0.       
    1.13000       0.           0.           0.       
    1.14000       0.           0.           0.       
    1.15000       0.           0.           0.       
    1.16000       0.           0.           0.       
    1.17000       0.           0.           0.       
    1.18000       0.           0.           0.       
    1.19000       0.           0.           0.       
    1.20000       0.           0.           0.       
    1.21000       0.           0.           0.       
    1.22000       0.           0.           0.       
    1.23000       0.           0.           0.       
    1.24000       0.           0.           0.       
    1.25000       0.           0.           0.       
    1.26000       0.           0.           0.       
    1.27000       0.           0.           0.       
    1.28000       0.           0.           0.       
    1.29000       0.           0.           0.       
    1.30000       0.           0.           0.       
y
-----------------------------------------------
 ******  
 *sample netlist for bsim6

  ******  dc transfer curves tnom=  25.000 temp=  25.000 *****

   *** source        0:vb =   -0.1000        ***

x

        volt    param        param        param      
                    ids          gm           gm2    
   -1.30000     6.814e-06      0.           0.       
   -1.29000     6.789e-06    6.814e-04      0.       
   -1.28000     6.764e-06   -2.442e-06    6.814e-02  
   -1.27000     6.739e-06   -2.480e-06   -6.838e-02  
   -1.26000     6.714e-06   -2.519e-06   -3.816e-06  
   -1.25000     6.688e-06   -2.558e-06   -3.873e-06  
   -1.24000     6.661e-06   -2.598e-06   -3.932e-06  
   -1.23000     6.635e-06   -2.638e-06   -3.990e-06  
   -1.22000     6.607e-06   -2.680e-06   -4.050e-06  
   -1.21000     6.580e-06   -2.721e-06   -4.111e-06  
   -1.20000     6.552e-06   -2.764e-06   -4.172e-06  
   -1.19000     6.523e-06   -2.807e-06   -4.235e-06  
   -1.18000     6.494e-06   -2.850e-06   -4.298e-06  
   -1.17000     6.465e-06   -2.895e-06   -4.362e-06  
   -1.16000     6.435e-06   -2.939e-06   -4.427e-06  
   -1.15000     6.405e-06   -2.985e-06   -4.493e-06  
   -1.14000     6.374e-06   -3.031e-06   -4.560e-06  
   -1.13000     6.343e-06   -3.078e-06   -4.627e-06  
   -1.12000     6.311e-06   -3.126e-06   -4.696e-06  
   -1.11000     6.279e-06   -3.174e-06   -4.765e-06  
   -1.10000     6.246e-06   -3.223e-06   -4.835e-06  
   -1.09000     6.213e-06   -3.273e-06   -4.907e-06  
   -1.08000     6.179e-06   -3.324e-06   -4.979e-06  
   -1.07000     6.145e-06   -3.375e-06   -5.051e-06  
   -1.06000     6.110e-06   -3.427e-06   -5.126e-06  
   -1.05000     6.074e-06   -3.480e-06   -5.200e-06  
   -1.04000     6.039e-06   -3.533e-06   -5.276e-06  
   -1.03000     6.002e-06   -3.587e-06   -5.352e-06  
   -1.02000     5.965e-06   -3.643e-06   -5.429e-06  
   -1.01000     5.928e-06   -3.698e-06   -5.507e-06  
   -1.00000     5.889e-06   -3.755e-06   -5.586e-06  
   -0.99000     5.851e-06   -3.813e-06   -5.665e-06  
   -0.98000     5.811e-06   -3.871e-06   -5.746e-06  
   -0.97000     5.772e-06   -3.930e-06   -5.827e-06  
   -0.96000     5.731e-06   -3.990e-06   -5.909e-06  
   -0.95000     5.690e-06   -4.051e-06   -5.991e-06  
   -0.94000     5.648e-06   -4.112e-06   -6.074e-06  
   -0.93000     5.606e-06   -4.175e-06   -6.158e-06  
   -0.92000     5.563e-06   -4.238e-06   -6.242e-06  
   -0.91000     5.519e-06   -4.302e-06   -6.327e-06  
   -0.90000     5.475e-06   -4.367e-06   -6.412e-06  
   -0.89000     5.430e-06   -4.433e-06   -6.498e-06  
   -0.88000     5.384e-06   -4.499e-06   -6.584e-06  
   -0.87000     5.338e-06   -4.567e-06   -6.671e-06  
   -0.86000     5.291e-06   -4.635e-06   -6.757e-06  
   -0.85000     5.243e-06   -4.705e-06   -6.844e-06  
   -0.84000     5.195e-06   -4.775e-06   -6.931e-06  
   -0.83000     5.145e-06   -4.846e-06   -7.018e-06  
   -0.82000     5.095e-06   -4.918e-06   -7.105e-06  
   -0.81000     5.045e-06   -4.991e-06   -7.191e-06  
   -0.80000     4.993e-06   -5.064e-06   -7.278e-06  
   -0.79000     4.941e-06   -5.139e-06   -7.364e-06  
   -0.78000     4.888e-06   -5.214e-06   -7.449e-06  
   -0.77000     4.835e-06   -5.290e-06   -7.534e-06  
   -0.76000     4.780e-06   -5.367e-06   -7.618e-06  
   -0.75000     4.725e-06   -5.445e-06   -7.701e-06  
   -0.74000     4.669e-06   -5.524e-06   -7.782e-06  
   -0.73000     4.612e-06   -5.603e-06   -7.863e-06  
   -0.72000     4.555e-06   -5.683e-06   -7.941e-06  
   -0.71000     4.496e-06   -5.764e-06   -8.018e-06  
   -0.70000     4.437e-06   -5.846e-06   -8.093e-06  
   -0.69000     4.377e-06   -5.928e-06   -8.165e-06  
   -0.68000     4.316e-06   -6.011e-06   -8.235e-06  
   -0.67000     4.254e-06   -6.095e-06   -8.302e-06  
   -0.66000     4.191e-06   -6.179e-06   -8.366e-06  
   -0.65000     4.128e-06   -6.264e-06   -8.426e-06  
   -0.64000     4.063e-06   -6.349e-06   -8.482e-06  
   -0.63000     3.998e-06   -6.435e-06   -8.533e-06  
   -0.62000     3.932e-06   -6.521e-06   -8.580e-06  
   -0.61000     3.865e-06   -6.608e-06   -8.621e-06  
   -0.60000     3.797e-06   -6.695e-06   -8.656e-06  
   -0.59000     3.729e-06   -6.782e-06   -8.684e-06  
   -0.58000     3.659e-06   -6.869e-06   -8.706e-06  
   -0.57000     3.589e-06   -6.956e-06   -8.719e-06  
   -0.56000     3.517e-06   -7.044e-06   -8.724e-06  
   -0.55000     3.445e-06   -7.131e-06   -8.719e-06  
   -0.54000     3.372e-06   -7.217e-06   -8.704e-06  
   -0.53000     3.298e-06   -7.304e-06   -8.677e-06  
   -0.52000     3.224e-06   -7.390e-06   -8.637e-06  
   -0.51000     3.148e-06   -7.475e-06   -8.583e-06  
   -0.50000     3.072e-06   -7.559e-06   -8.515e-06  
   -0.49000     2.994e-06   -7.642e-06   -8.430e-06  
   -0.48000     2.916e-06   -7.724e-06   -8.326e-06  
   -0.47000     2.837e-06   -7.805e-06   -8.203e-06  
   -0.46000     2.758e-06   -7.884e-06   -8.057e-06  
   -0.45000     2.677e-06   -7.961e-06   -7.888e-06  
   -0.44000     2.596e-06   -8.035e-06   -7.691e-06  
   -0.43000     2.515e-06   -8.107e-06   -7.466e-06  
   -0.42000     2.432e-06   -8.177e-06   -7.208e-06  
   -0.41000     2.349e-06   -8.242e-06   -6.915e-06  
   -0.40000     2.265e-06   -8.304e-06   -6.583e-06  
   -0.39000     2.181e-06   -8.362e-06   -6.207e-06  
   -0.38000     2.097e-06   -8.415e-06   -5.784e-06  
   -0.37000     2.012e-06   -8.463e-06   -5.307e-06  
   -0.36000     1.926e-06   -8.505e-06   -4.772e-06  
   -0.35000     1.841e-06   -8.540e-06   -4.171e-06  
   -0.34000     1.755e-06   -8.567e-06   -3.497e-06  
   -0.33000     1.669e-06   -8.586e-06   -2.743e-06  
   -0.32000     1.583e-06   -8.596e-06   -1.899e-06  
   -0.31000     1.497e-06   -8.595e-06   -9.545e-07  
   -0.30000     1.411e-06   -8.582e-06    1.013e-07  
   -0.29000     1.326e-06   -8.556e-06    1.283e-06  
   -0.28000     1.242e-06   -8.515e-06    2.602e-06  
   -0.27000     1.158e-06   -8.458e-06    4.077e-06  
   -0.26000     1.075e-06   -8.382e-06    5.723e-06  
   -0.25000     9.934e-07   -8.286e-06    7.560e-06  
   -0.24000     9.131e-07   -8.167e-06    9.608e-06  
   -0.23000     8.346e-07   -8.023e-06    1.188e-05  
   -0.22000     7.581e-07   -7.851e-06    1.441e-05  
   -0.21000     6.840e-07   -7.649e-06    1.719e-05  
   -0.20000     6.126e-07   -7.413e-06    2.024e-05  
   -0.19000     5.442e-07   -7.143e-06    2.354e-05  
   -0.18000     4.793e-07   -6.835e-06    2.706e-05  
   -0.17000     4.182e-07   -6.490e-06    3.074e-05  
   -0.16000     3.613e-07   -6.108e-06    3.450e-05  
   -0.15000     3.089e-07   -5.691e-06    3.821e-05  
   -0.14000     2.612e-07   -5.243e-06    4.171e-05  
   -0.13000     2.184e-07   -4.770e-06    4.482e-05  
   -0.12000     1.805e-07   -4.281e-06    4.730e-05  
   -0.11000     1.475e-07   -3.786e-06    4.892e-05  
   -0.10000     1.193e-07   -3.297e-06    4.949e-05  
 -9.0000e-02    9.542e-08   -2.826e-06    4.889e-05  
 -8.0000e-02    7.561e-08   -2.385e-06    4.708e-05  
 -7.0000e-02    5.940e-08   -1.981e-06    4.417e-05  
 -6.0000e-02    4.630e-08   -1.622e-06    4.036e-05  
 -5.0000e-02    3.586e-08   -1.309e-06    3.594e-05  
 -4.0000e-02    2.762e-08   -1.044e-06    3.122e-05  
 -3.0000e-02    2.118e-08   -8.239e-07    2.650e-05  
 -2.0000e-02    1.618e-08   -6.441e-07    2.203e-05  
 -1.0000e-02    1.233e-08   -4.997e-07    1.798e-05  
    0.          9.375e-09   -3.852e-07    1.444e-05  
  1.0000e-02    7.116e-09   -2.955e-07    1.145e-05  
  2.0000e-02    5.396e-09   -2.258e-07    8.972e-06  
  3.0000e-02    4.088e-09   -1.721e-07    6.970e-06  
  4.0000e-02    3.095e-09   -1.308e-07    5.378e-06  
  5.0000e-02    2.343e-09   -9.925e-08    4.127e-06  
  6.0000e-02    1.773e-09   -7.523e-08    3.153e-06  
  7.0000e-02    1.342e-09   -5.697e-08    2.402e-06  
  8.0000e-02    1.016e-09   -4.313e-08    1.826e-06  
  9.0000e-02    7.689e-10   -3.263e-08    1.385e-06  
    0.10000     5.822e-10   -2.469e-08    1.049e-06  
    0.11000     4.409e-10   -1.868e-08    7.944e-07  
    0.12000     3.340e-10   -1.413e-08    6.010e-07  
    0.13000     2.531e-10   -1.069e-08    4.547e-07  
    0.14000     1.918e-10   -8.090e-09    3.440e-07  
    0.15000     1.455e-10   -6.124e-09    2.599e-07  
    0.16000     1.104e-10   -4.638e-09    1.966e-07  
    0.17000     8.375e-11   -3.512e-09    1.486e-07  
    0.18000     6.358e-11   -2.660e-09    1.126e-07  
    0.19000     4.828e-11   -2.017e-09    8.512e-08  
    0.20000     3.669e-11   -1.530e-09    6.430e-08  
    0.21000     2.789e-11   -1.159e-09    4.874e-08  
    0.22000     2.121e-11   -8.804e-10    3.709e-08  
    0.23000     1.613e-11   -6.679e-10    2.785e-08  
    0.24000     1.228e-11   -5.080e-10    2.125e-08  
    0.25000     9.351e-12   -3.851e-10    1.599e-08  
    0.26000     7.127e-12   -2.927e-10    1.229e-08  
    0.27000     5.429e-12   -2.224e-10    9.237e-09  
    0.28000     4.150e-12   -1.698e-10    7.034e-09  
    0.29000     3.162e-12   -1.279e-10    5.258e-09  
    0.30000     2.416e-12   -9.877e-11    4.192e-09  
    0.31000     1.847e-12   -7.461e-11    2.913e-09  
    0.32000     1.407e-12   -5.684e-11    2.416e-09  
    0.33000     1.087e-12   -4.405e-11    1.776e-09  
    0.34000     8.242e-13   -3.197e-11    1.279e-09  
    0.35000     6.324e-13   -2.629e-11    1.208e-09  
    0.36000     4.832e-13   -1.918e-11    5.684e-10  
    0.37000     3.695e-13   -1.492e-11    7.105e-10  
    0.38000     2.842e-13   -1.137e-11    4.263e-10  
    0.39000     2.274e-13   -8.527e-12    3.553e-10  
    0.40000     1.634e-13   -5.684e-12    2.842e-10  
    0.41000     1.350e-13   -6.395e-12    2.842e-10  
    0.42000     9.948e-14   -2.842e-12   -7.105e-11  
    0.43000     6.395e-14   -3.553e-12    3.553e-10  
    0.44000     4.974e-14   -3.553e-12   -7.105e-11  
    0.45000     4.263e-14   -1.421e-12      0.       
    0.46000     2.842e-14   -7.105e-13    2.132e-10  
    0.47000     2.842e-14   -1.421e-12    7.105e-11  
    0.48000     2.842e-14      0.        -7.105e-11  
    0.49000     1.421e-14      0.         1.421e-10  
    0.50000     1.421e-14   -1.421e-12      0.       
    0.51000     7.105e-15      0.        -1.421e-10  
    0.52000     1.421e-14   -7.105e-13    1.421e-10  
    0.53000     7.105e-15    7.105e-13   -7.105e-11  
    0.54000       0.        -7.105e-13    1.421e-10  
    0.55000       0.        -7.105e-13   -1.421e-10  
    0.56000       0.           0.           0.       
    0.57000       0.           0.         7.105e-11  
    0.58000       0.           0.           0.       
    0.59000       0.           0.           0.       
    0.60000       0.           0.           0.       
    0.61000       0.           0.           0.       
    0.62000       0.           0.           0.       
    0.63000       0.           0.           0.       
    0.64000       0.           0.           0.       
    0.65000       0.           0.           0.       
    0.66000       0.           0.           0.       
    0.67000       0.           0.           0.       
    0.68000       0.           0.           0.       
    0.69000       0.           0.           0.       
    0.70000       0.           0.           0.       
    0.71000       0.           0.           0.       
    0.72000       0.           0.           0.       
    0.73000       0.           0.           0.       
    0.74000       0.           0.           0.       
    0.75000       0.           0.           0.       
    0.76000       0.           0.           0.       
    0.77000       0.           0.           0.       
    0.78000       0.           0.           0.       
    0.79000       0.           0.           0.       
    0.80000       0.           0.           0.       
    0.81000       0.           0.           0.       
    0.82000       0.           0.           0.       
    0.83000       0.           0.           0.       
    0.84000       0.           0.           0.       
    0.85000       0.           0.           0.       
    0.86000       0.           0.           0.       
    0.87000       0.           0.           0.       
    0.88000       0.           0.           0.       
    0.89000       0.           0.           0.       
    0.90000       0.           0.           0.       
    0.91000       0.           0.           0.       
    0.92000       0.           0.           0.       
    0.93000       0.           0.           0.       
    0.94000       0.           0.           0.       
    0.95000       0.           0.           0.       
    0.96000       0.           0.           0.       
    0.97000       0.           0.           0.       
    0.98000       0.           0.           0.       
    0.99000       0.           0.           0.       
    1.00000       0.           0.           0.       
    1.01000       0.           0.           0.       
    1.02000       0.           0.           0.       
    1.03000       0.           0.           0.       
    1.04000       0.           0.           0.       
    1.05000       0.           0.           0.       
    1.06000       0.           0.           0.       
    1.07000       0.           0.           0.       
    1.08000       0.           0.           0.       
    1.09000       0.           0.           0.       
    1.10000       0.           0.           0.       
    1.11000       0.           0.           0.       
    1.12000       0.           0.           0.       
    1.13000       0.           0.           0.       
    1.14000       0.           0.           0.       
    1.15000       0.           0.           0.       
    1.16000       0.           0.           0.       
    1.17000       0.           0.           0.       
    1.18000       0.           0.           0.       
    1.19000       0.           0.           0.       
    1.20000       0.           0.           0.       
    1.21000       0.           0.           0.       
    1.22000       0.           0.           0.       
    1.23000       0.           0.           0.       
    1.24000       0.           0.           0.       
    1.25000       0.           0.           0.       
    1.26000       0.           0.           0.       
    1.27000       0.           0.           0.       
    1.28000       0.           0.           0.       
    1.29000       0.           0.           0.       
    1.30000       0.           0.           0.       
y
-----------------------------------------------
 ******  
 *sample netlist for bsim6

  ******  dc transfer curves tnom=  25.000 temp=  25.000 *****

   *** source        0:vb =   -0.2000        ***

x

        volt    param        param        param      
                    ids          gm           gm2    
   -1.30000     6.892e-06      0.           0.       
   -1.29000     6.868e-06    6.892e-04      0.       
   -1.28000     6.844e-06   -2.405e-06    6.892e-02  
   -1.27000     6.819e-06   -2.443e-06   -6.916e-02  
   -1.26000     6.794e-06   -2.481e-06   -3.794e-06  
   -1.25000     6.768e-06   -2.520e-06   -3.851e-06  
   -1.24000     6.742e-06   -2.560e-06   -3.909e-06  
   -1.23000     6.716e-06   -2.600e-06   -3.968e-06  
   -1.22000     6.689e-06   -2.641e-06   -4.028e-06  
   -1.21000     6.662e-06   -2.683e-06   -4.089e-06  
   -1.20000     6.634e-06   -2.725e-06   -4.150e-06  
   -1.19000     6.606e-06   -2.768e-06   -4.213e-06  
   -1.18000     6.577e-06   -2.811e-06   -4.276e-06  
   -1.17000     6.548e-06   -2.855e-06   -4.340e-06  
   -1.16000     6.519e-06   -2.900e-06   -4.405e-06  
   -1.15000     6.489e-06   -2.945e-06   -4.471e-06  
   -1.14000     6.459e-06   -2.991e-06   -4.538e-06  
   -1.13000     6.428e-06   -3.038e-06   -4.605e-06  
   -1.12000     6.396e-06   -3.085e-06   -4.674e-06  
   -1.11000     6.365e-06   -3.134e-06   -4.744e-06  
   -1.10000     6.332e-06   -3.182e-06   -4.814e-06  
   -1.09000     6.299e-06   -3.232e-06   -4.885e-06  
   -1.08000     6.266e-06   -3.282e-06   -4.958e-06  
   -1.07000     6.232e-06   -3.333e-06   -5.030e-06  
   -1.06000     6.198e-06   -3.385e-06   -5.104e-06  
   -1.05000     6.163e-06   -3.438e-06   -5.179e-06  
   -1.04000     6.128e-06   -3.491e-06   -5.255e-06  
   -1.03000     6.092e-06   -3.545e-06   -5.332e-06  
   -1.02000     6.055e-06   -3.600e-06   -5.409e-06  
   -1.01000     6.018e-06   -3.656e-06   -5.487e-06  
   -1.00000     5.980e-06   -3.712e-06   -5.566e-06  
   -0.99000     5.942e-06   -3.769e-06   -5.646e-06  
   -0.98000     5.903e-06   -3.827e-06   -5.727e-06  
   -0.97000     5.864e-06   -3.886e-06   -5.808e-06  
   -0.96000     5.823e-06   -3.946e-06   -5.890e-06  
   -0.95000     5.783e-06   -4.007e-06   -5.973e-06  
   -0.94000     5.741e-06   -4.068e-06   -6.057e-06  
   -0.93000     5.700e-06   -4.130e-06   -6.141e-06  
   -0.92000     5.657e-06   -4.193e-06   -6.225e-06  
   -0.91000     5.614e-06   -4.257e-06   -6.311e-06  
   -0.90000     5.570e-06   -4.322e-06   -6.397e-06  
   -0.89000     5.525e-06   -4.388e-06   -6.483e-06  
   -0.88000     5.480e-06   -4.454e-06   -6.569e-06  
   -0.87000     5.434e-06   -4.522e-06   -6.657e-06  
   -0.86000     5.388e-06   -4.590e-06   -6.744e-06  
   -0.85000     5.340e-06   -4.659e-06   -6.832e-06  
   -0.84000     5.292e-06   -4.729e-06   -6.919e-06  
   -0.83000     5.244e-06   -4.800e-06   -7.007e-06  
   -0.82000     5.194e-06   -4.872e-06   -7.095e-06  
   -0.81000     5.144e-06   -4.945e-06   -7.183e-06  
   -0.80000     5.093e-06   -5.019e-06   -7.270e-06  
   -0.79000     5.041e-06   -5.093e-06   -7.357e-06  
   -0.78000     4.989e-06   -5.168e-06   -7.444e-06  
   -0.77000     4.936e-06   -5.244e-06   -7.530e-06  
   -0.76000     4.882e-06   -5.321e-06   -7.616e-06  
   -0.75000     4.827e-06   -5.399e-06   -7.699e-06  
   -0.74000     4.771e-06   -5.478e-06   -7.783e-06  
   -0.73000     4.715e-06   -5.557e-06   -7.865e-06  
   -0.72000     4.658e-06   -5.638e-06   -7.945e-06  
   -0.71000     4.600e-06   -5.719e-06   -8.024e-06  
   -0.70000     4.541e-06   -5.800e-06   -8.101e-06  
   -0.69000     4.481e-06   -5.883e-06   -8.176e-06  
   -0.68000     4.421e-06   -5.966e-06   -8.248e-06  
   -0.67000     4.359e-06   -6.050e-06   -8.318e-06  
   -0.66000     4.297e-06   -6.134e-06   -8.385e-06  
   -0.65000     4.234e-06   -6.219e-06   -8.448e-06  
   -0.64000     4.170e-06   -6.305e-06   -8.507e-06  
   -0.63000     4.106e-06   -6.391e-06   -8.563e-06  
   -0.62000     4.040e-06   -6.478e-06   -8.613e-06  
   -0.61000     3.973e-06   -6.565e-06   -8.659e-06  
   -0.60000     3.906e-06   -6.652e-06   -8.699e-06  
   -0.59000     3.838e-06   -6.740e-06   -8.733e-06  
   -0.58000     3.769e-06   -6.828e-06   -8.760e-06  
   -0.57000     3.698e-06   -6.915e-06   -8.779e-06  
   -0.56000     3.628e-06   -7.003e-06   -8.791e-06  
   -0.55000     3.556e-06   -7.091e-06   -8.793e-06  
   -0.54000     3.483e-06   -7.179e-06   -8.786e-06  
   -0.53000     3.410e-06   -7.266e-06   -8.768e-06  
   -0.52000     3.335e-06   -7.353e-06   -8.738e-06  
   -0.51000     3.260e-06   -7.440e-06   -8.695e-06  
   -0.50000     3.184e-06   -7.525e-06   -8.638e-06  
   -0.49000     3.107e-06   -7.610e-06   -8.566e-06  
   -0.48000     3.029e-06   -7.694e-06   -8.477e-06  
   -0.47000     2.951e-06   -7.776e-06   -8.370e-06  
   -0.46000     2.871e-06   -7.857e-06   -8.242e-06  
   -0.45000     2.791e-06   -7.936e-06   -8.092e-06  
   -0.44000     2.710e-06   -8.013e-06   -7.917e-06  
   -0.43000     2.629e-06   -8.088e-06   -7.716e-06  
   -0.42000     2.546e-06   -8.160e-06   -7.485e-06  
   -0.41000     2.463e-06   -8.230e-06   -7.222e-06  
   -0.40000     2.380e-06   -8.296e-06   -6.923e-06  
   -0.39000     2.296e-06   -8.358e-06   -6.585e-06  
   -0.38000     2.211e-06   -8.415e-06   -6.204e-06  
   -0.37000     2.126e-06   -8.468e-06   -5.775e-06  
   -0.36000     2.040e-06   -8.516e-06   -5.294e-06  
   -0.35000     1.954e-06   -8.557e-06   -4.753e-06  
   -0.34000     1.868e-06   -8.592e-06   -4.148e-06  
   -0.33000     1.782e-06   -8.619e-06   -3.471e-06  
   -0.32000     1.695e-06   -8.638e-06   -2.715e-06  
   -0.31000     1.609e-06   -8.647e-06   -1.870e-06  
   -0.30000     1.522e-06   -8.646e-06   -9.265e-07  
   -0.29000     1.436e-06   -8.633e-06    1.261e-07  
   -0.28000     1.351e-06   -8.607e-06    1.301e-06  
   -0.27000     1.266e-06   -8.566e-06    2.612e-06  
   -0.26000     1.181e-06   -8.509e-06    4.072e-06  
   -0.25000     1.098e-06   -8.434e-06    5.700e-06  
   -0.24000     1.016e-06   -8.339e-06    7.513e-06  
   -0.23000     9.349e-07   -8.221e-06    9.528e-06  
   -0.22000     8.558e-07   -8.079e-06    1.176e-05  
   -0.21000     7.787e-07   -7.909e-06    1.424e-05  
   -0.20000     7.039e-07   -7.710e-06    1.696e-05  
   -0.19000     6.318e-07   -7.478e-06    1.994e-05  
   -0.18000     5.627e-07   -7.212e-06    2.316e-05  
   -0.17000     4.970e-07   -6.910e-06    2.659e-05  
   -0.16000     4.350e-07   -6.572e-06    3.018e-05  
   -0.15000     3.771e-07   -6.197e-06    3.384e-05  
   -0.14000     3.237e-07   -5.788e-06    3.747e-05  
   -0.13000     2.748e-07   -5.348e-06    4.093e-05  
   -0.12000     2.309e-07   -4.882e-06    4.403e-05  
   -0.11000     1.918e-07   -4.399e-06    4.655e-05  
   -0.10000     1.576e-07   -3.908e-06    4.830e-05  
 -9.0000e-02    1.281e-07   -3.421e-06    4.906e-05  
 -8.0000e-02    1.030e-07   -2.949e-06    4.871e-05  
 -7.0000e-02    8.210e-08   -2.503e-06    4.720e-05  
 -6.0000e-02    6.486e-08   -2.093e-06    4.459e-05  
 -5.0000e-02    5.085e-08   -1.724e-06    4.105e-05  
 -4.0000e-02    3.960e-08   -1.401e-06    3.685e-05  
 -3.0000e-02    3.066e-08   -1.125e-06    3.228e-05  
 -2.0000e-02    2.364e-08   -8.934e-07    2.764e-05  
 -1.0000e-02    1.815e-08   -7.027e-07    2.317e-05  
    0.          1.390e-08   -5.484e-07    1.906e-05  
  1.0000e-02    1.062e-08   -4.252e-07    1.543e-05  
  2.0000e-02    8.101e-09   -3.280e-07    1.232e-05  
  3.0000e-02    6.171e-09   -2.519e-07    9.724e-06  
  4.0000e-02    4.698e-09   -1.929e-07    7.604e-06  
  5.0000e-02    3.574e-09   -1.474e-07    5.902e-06  
  6.0000e-02    2.718e-09   -1.124e-07    4.555e-06  
  7.0000e-02    2.067e-09   -8.558e-08    3.499e-06  
  8.0000e-02    1.572e-09   -6.512e-08    2.679e-06  
  9.0000e-02    1.195e-09   -4.952e-08    2.046e-06  
    0.10000     9.094e-10   -3.764e-08    1.560e-06  
    0.11000     6.919e-10   -2.861e-08    1.188e-06  
    0.12000     5.266e-10   -2.174e-08    9.031e-07  
    0.13000     4.010e-10   -1.653e-08    6.866e-07  
    0.14000     3.054e-10   -1.257e-08    5.215e-07  
    0.15000     2.327e-10   -9.555e-09    3.963e-07  
    0.16000     1.774e-10   -7.269e-09    3.011e-07  
    0.17000     1.353e-10   -5.532e-09    2.287e-07  
    0.18000     1.033e-10   -4.209e-09    1.737e-07  
    0.19000     7.883e-11   -3.206e-09    1.322e-07  
    0.20000     6.021e-11   -2.442e-09    1.003e-07  
    0.21000     4.601e-11   -1.862e-09    7.638e-08  
    0.22000     3.519e-11   -1.420e-09    5.798e-08  
    0.23000     2.693e-11   -1.083e-09    4.427e-08  
    0.24000     2.061e-11   -8.257e-10    3.368e-08  
    0.25000     1.579e-11   -6.324e-10    2.572e-08  
    0.26000     1.210e-11   -4.817e-10    1.933e-08  
    0.27000     9.287e-12   -3.688e-10    1.506e-08  
    0.28000     7.127e-12   -2.814e-10    1.130e-08  
    0.29000     5.457e-12   -2.160e-10    8.740e-09  
    0.30000     4.199e-12   -1.670e-10    6.537e-09  
    0.31000     3.240e-12   -1.258e-10    4.903e-09  
    0.32000     2.480e-12   -9.592e-11    4.121e-09  
    0.33000     1.918e-12   -7.603e-11    2.984e-09  
    0.34000     1.471e-12   -5.613e-11    1.990e-09  
    0.35000     1.137e-12   -4.476e-11    1.990e-09  
    0.36000     8.811e-13   -3.340e-11    1.137e-09  
    0.37000     6.679e-13   -2.558e-11    1.137e-09  
    0.38000     5.258e-13   -2.132e-11    7.816e-10  
    0.39000     4.121e-13   -1.421e-11    4.263e-10  
    0.40000     3.268e-13   -1.137e-11    7.105e-10  
    0.41000     2.416e-13   -8.527e-12    2.842e-10  
    0.42000     1.776e-13   -8.527e-12    2.842e-10  
    0.43000     1.492e-13   -6.395e-12      0.       
    0.44000     1.208e-13   -2.842e-12    2.132e-10  
    0.45000     9.237e-14   -2.842e-12    3.553e-10  
    0.46000     7.105e-14   -2.842e-12      0.       
    0.47000     4.974e-14   -2.132e-12      0.       
    0.48000     4.263e-14   -2.132e-12    7.105e-11  
    0.49000     2.842e-14   -7.105e-13      0.       
    0.50000     2.842e-14   -1.421e-12    1.421e-10  
    0.51000     2.132e-14      0.        -7.105e-11  
    0.52000     2.132e-14   -7.105e-13    1.421e-10  
    0.53000     1.421e-14      0.        -7.105e-11  
    0.54000     7.105e-15   -7.105e-13    7.105e-11  
    0.55000     1.421e-14   -7.105e-13   -7.105e-11  
    0.56000       0.         7.105e-13      0.       
    0.57000       0.        -1.421e-12    1.421e-10  
    0.58000     7.105e-15      0.        -2.132e-10  
    0.59000       0.         7.105e-13    1.421e-10  
    0.60000       0.        -7.105e-13    7.105e-11  
    0.61000    -7.105e-15      0.        -1.421e-10  
    0.62000       0.        -7.105e-13    7.105e-11  
    0.63000       0.         7.105e-13   -7.105e-11  
    0.64000       0.           0.         1.421e-10  
    0.65000    -7.105e-15      0.        -7.105e-11  
    0.66000       0.        -7.105e-13      0.       
    0.67000       0.         7.105e-13   -7.105e-11  
    0.68000       0.           0.         1.421e-10  
    0.69000       0.           0.        -7.105e-11  
    0.70000    -7.105e-15      0.           0.       
    0.71000       0.        -7.105e-13      0.       
    0.72000       0.         7.105e-13   -7.105e-11  
    0.73000       0.           0.         1.421e-10  
    0.74000       0.           0.        -7.105e-11  
    0.75000       0.           0.           0.       
    0.76000       0.           0.           0.       
    0.77000       0.           0.           0.       
    0.78000       0.           0.           0.       
    0.79000       0.           0.           0.       
    0.80000       0.           0.           0.       
    0.81000       0.           0.           0.       
    0.82000       0.           0.           0.       
    0.83000       0.           0.           0.       
    0.84000       0.           0.           0.       
    0.85000       0.           0.           0.       
    0.86000       0.           0.           0.       
    0.87000       0.           0.           0.       
    0.88000       0.           0.           0.       
    0.89000       0.           0.           0.       
    0.90000       0.           0.           0.       
    0.91000       0.           0.           0.       
    0.92000       0.           0.           0.       
    0.93000       0.           0.           0.       
    0.94000       0.           0.           0.       
    0.95000       0.           0.           0.       
    0.96000       0.           0.           0.       
    0.97000       0.           0.           0.       
    0.98000       0.           0.           0.       
    0.99000       0.           0.           0.       
    1.00000       0.           0.           0.       
    1.01000       0.           0.           0.       
    1.02000       0.           0.           0.       
    1.03000       0.           0.           0.       
    1.04000       0.           0.           0.       
    1.05000       0.           0.           0.       
    1.06000       0.           0.           0.       
    1.07000       0.           0.           0.       
    1.08000       0.           0.           0.       
    1.09000       0.           0.           0.       
    1.10000       0.           0.           0.       
    1.11000       0.           0.           0.       
    1.12000       0.           0.           0.       
    1.13000       0.           0.           0.       
    1.14000       0.           0.           0.       
    1.15000       0.           0.           0.       
    1.16000       0.           0.           0.       
    1.17000       0.           0.           0.       
    1.18000       0.           0.           0.       
    1.19000       0.           0.           0.       
    1.20000       0.           0.           0.       
    1.21000       0.           0.           0.       
    1.22000       0.           0.           0.       
    1.23000       0.           0.           0.       
    1.24000       0.           0.           0.       
    1.25000       0.           0.           0.       
    1.26000       0.           0.           0.       
    1.27000       0.           0.           0.       
    1.28000       0.           0.           0.       
    1.29000       0.           0.           0.       
    1.30000       0.           0.           0.       
y
-----------------------------------------------
 ******  
 *sample netlist for bsim6

  ******  dc transfer curves tnom=  25.000 temp=  25.000 *****

   *** source        0:vb =   -0.3000        ***

x

        volt    param        param        param      
                    ids          gm           gm2    
   -1.30000     6.977e-06      0.           0.       
   -1.29000     6.953e-06    6.977e-04      0.       
   -1.28000     6.929e-06   -2.363e-06    6.977e-02  
   -1.27000     6.905e-06   -2.401e-06   -7.001e-02  
   -1.26000     6.880e-06   -2.439e-06   -3.767e-06  
   -1.25000     6.855e-06   -2.478e-06   -3.824e-06  
   -1.24000     6.829e-06   -2.517e-06   -3.882e-06  
   -1.23000     6.803e-06   -2.557e-06   -3.941e-06  
   -1.22000     6.777e-06   -2.598e-06   -4.000e-06  
   -1.21000     6.750e-06   -2.639e-06   -4.061e-06  
   -1.20000     6.723e-06   -2.681e-06   -4.122e-06  
   -1.19000     6.695e-06   -2.723e-06   -4.185e-06  
   -1.18000     6.667e-06   -2.767e-06   -4.248e-06  
   -1.17000     6.639e-06   -2.810e-06   -4.312e-06  
   -1.16000     6.610e-06   -2.855e-06   -4.377e-06  
   -1.15000     6.580e-06   -2.900e-06   -4.443e-06  
   -1.14000     6.550e-06   -2.946e-06   -4.510e-06  
   -1.13000     6.520e-06   -2.992e-06   -4.577e-06  
   -1.12000     6.489e-06   -3.039e-06   -4.646e-06  
   -1.11000     6.458e-06   -3.087e-06   -4.716e-06  
   -1.10000     6.426e-06   -3.136e-06   -4.786e-06  
   -1.09000     6.393e-06   -3.185e-06   -4.857e-06  
   -1.08000     6.361e-06   -3.235e-06   -4.930e-06  
   -1.07000     6.327e-06   -3.286e-06   -5.003e-06  
   -1.06000     6.293e-06   -3.337e-06   -5.076e-06  
   -1.05000     6.259e-06   -3.390e-06   -5.152e-06  
   -1.04000     6.224e-06   -3.443e-06   -5.227e-06  
   -1.03000     6.188e-06   -3.496e-06   -5.304e-06  
   -1.02000     6.152e-06   -3.551e-06   -5.382e-06  
   -1.01000     6.116e-06   -3.606e-06   -5.460e-06  
   -1.00000     6.079e-06   -3.663e-06   -5.539e-06  
   -0.99000     6.041e-06   -3.720e-06   -5.619e-06  
   -0.98000     6.002e-06   -3.777e-06   -5.700e-06  
   -0.97000     5.963e-06   -3.836e-06   -5.781e-06  
   -0.96000     5.924e-06   -3.896e-06   -5.864e-06  
   -0.95000     5.884e-06   -3.956e-06   -5.947e-06  
   -0.94000     5.843e-06   -4.017e-06   -6.031e-06  
   -0.93000     5.802e-06   -4.079e-06   -6.116e-06  
   -0.92000     5.759e-06   -4.142e-06   -6.201e-06  
   -0.91000     5.717e-06   -4.206e-06   -6.286e-06  
   -0.90000     5.673e-06   -4.270e-06   -6.373e-06  
   -0.89000     5.629e-06   -4.336e-06   -6.459e-06  
   -0.88000     5.585e-06   -4.402e-06   -6.547e-06  
   -0.87000     5.539e-06   -4.469e-06   -6.635e-06  
   -0.86000     5.493e-06   -4.537e-06   -6.722e-06  
   -0.85000     5.447e-06   -4.606e-06   -6.811e-06  
   -0.84000     5.399e-06   -4.676e-06   -6.900e-06  
   -0.83000     5.351e-06   -4.747e-06   -6.988e-06  
   -0.82000     5.302e-06   -4.819e-06   -7.077e-06  
   -0.81000     5.252e-06   -4.891e-06   -7.165e-06  
   -0.80000     5.202e-06   -4.965e-06   -7.254e-06  
   -0.79000     5.151e-06   -5.039e-06   -7.342e-06  
   -0.78000     5.099e-06   -5.114e-06   -7.430e-06  
   -0.77000     5.046e-06   -5.190e-06   -7.517e-06  
   -0.76000     4.993e-06   -5.267e-06   -7.604e-06  
   -0.75000     4.939e-06   -5.345e-06   -7.690e-06  
   -0.74000     4.883e-06   -5.423e-06   -7.775e-06  
   -0.73000     4.828e-06   -5.503e-06   -7.858e-06  
   -0.72000     4.771e-06   -5.583e-06   -7.941e-06  
   -0.71000     4.714e-06   -5.664e-06   -8.022e-06  
   -0.70000     4.655e-06   -5.746e-06   -8.101e-06  
   -0.69000     4.596e-06   -5.828e-06   -8.178e-06  
   -0.68000     4.536e-06   -5.912e-06   -8.253e-06  
   -0.67000     4.475e-06   -5.996e-06   -8.325e-06  
   -0.66000     4.414e-06   -6.080e-06   -8.395e-06  
   -0.65000     4.351e-06   -6.165e-06   -8.462e-06  
   -0.64000     4.288e-06   -6.251e-06   -8.524e-06  
   -0.63000     4.224e-06   -6.338e-06   -8.584e-06  
   -0.62000     4.159e-06   -6.424e-06   -8.638e-06  
   -0.61000     4.093e-06   -6.512e-06   -8.688e-06  
   -0.60000     4.026e-06   -6.600e-06   -8.733e-06  
   -0.59000     3.958e-06   -6.688e-06   -8.772e-06  
   -0.58000     3.889e-06   -6.776e-06   -8.805e-06  
   -0.57000     3.820e-06   -6.864e-06   -8.831e-06  
   -0.56000     3.749e-06   -6.953e-06   -8.849e-06  
   -0.55000     3.678e-06   -7.042e-06   -8.859e-06  
   -0.54000     3.606e-06   -7.130e-06   -8.860e-06  
   -0.53000     3.533e-06   -7.218e-06   -8.851e-06  
   -0.52000     3.459e-06   -7.306e-06   -8.831e-06  
   -0.51000     3.384e-06   -7.394e-06   -8.799e-06  
   -0.50000     3.308e-06   -7.481e-06   -8.754e-06  
   -0.49000     3.232e-06   -7.567e-06   -8.695e-06  
   -0.48000     3.154e-06   -7.652e-06   -8.621e-06  
   -0.47000     3.076e-06   -7.737e-06   -8.529e-06  
   -0.46000     2.997e-06   -7.819e-06   -8.419e-06  
   -0.45000     2.917e-06   -7.901e-06   -8.288e-06  
   -0.44000     2.837e-06   -7.980e-06   -8.135e-06  
   -0.43000     2.756e-06   -8.058e-06   -7.958e-06  
   -0.42000     2.673e-06   -8.133e-06   -7.754e-06  
   -0.41000     2.591e-06   -8.206e-06   -7.521e-06  
   -0.40000     2.507e-06   -8.275e-06   -7.256e-06  
   -0.39000     2.423e-06   -8.341e-06   -6.955e-06  
   -0.38000     2.339e-06   -8.404e-06   -6.615e-06  
   -0.37000     2.253e-06   -8.462e-06   -6.233e-06  
   -0.36000     2.168e-06   -8.515e-06   -5.804e-06  
   -0.35000     2.082e-06   -8.563e-06   -5.323e-06  
   -0.34000     1.995e-06   -8.605e-06   -4.785e-06  
   -0.33000     1.909e-06   -8.640e-06   -4.183e-06  
   -0.32000     1.822e-06   -8.667e-06   -3.511e-06  
   -0.31000     1.735e-06   -8.687e-06   -2.762e-06  
   -0.30000     1.648e-06   -8.697e-06   -1.927e-06  
   -0.29000     1.561e-06   -8.696e-06   -9.974e-07  
   -0.28000     1.474e-06   -8.684e-06    3.823e-08  
   -0.27000     1.388e-06   -8.660e-06    1.191e-06  
   -0.26000     1.303e-06   -8.621e-06    2.473e-06  
   -0.25000     1.218e-06   -8.566e-06    3.899e-06  
   -0.24000     1.134e-06   -8.493e-06    5.484e-06  
   -0.23000     1.051e-06   -8.401e-06    7.245e-06  
   -0.22000     9.693e-07   -8.288e-06    9.197e-06  
   -0.21000     8.894e-07   -8.150e-06    1.136e-05  
   -0.20000     8.115e-07   -7.987e-06    1.375e-05  
   -0.19000     7.358e-07   -7.794e-06    1.637e-05  
   -0.18000     6.626e-07   -7.571e-06    1.923e-05  
   -0.17000     5.924e-07   -7.315e-06    2.233e-05  
   -0.16000     5.254e-07   -7.024e-06    2.563e-05  
   -0.15000     4.621e-07   -6.697e-06    2.909e-05  
   -0.14000     4.027e-07   -6.336e-06    3.264e-05  
   -0.13000     3.475e-07   -5.940e-06    3.617e-05  
   -0.12000     2.969e-07   -5.513e-06    3.958e-05  
   -0.11000     2.511e-07   -5.060e-06    4.269e-05  
   -0.10000     2.100e-07   -4.587e-06    4.532e-05  
 -9.0000e-02    1.738e-07   -4.103e-06    4.727e-05  
 -8.0000e-02    1.424e-07   -3.619e-06    4.835e-05  
 -7.0000e-02    1.154e-07   -3.146e-06    4.840e-05  
 -6.0000e-02    9.272e-08   -2.694e-06    4.735e-05  
 -5.0000e-02    7.382e-08   -2.273e-06    4.521e-05  
 -4.0000e-02    5.831e-08   -1.890e-06    4.211e-05  
 -3.0000e-02    4.575e-08   -1.551e-06    3.826e-05  
 -2.0000e-02    3.568e-08   -1.256e-06    3.394e-05  
 -1.0000e-02    2.770e-08   -1.007e-06    2.943e-05  
    0.          2.141e-08   -7.986e-07    2.498e-05  
  1.0000e-02    1.650e-08   -6.283e-07    2.080e-05  
  2.0000e-02    1.269e-08   -4.909e-07    1.703e-05  
  3.0000e-02    9.738e-09   -3.814e-07    1.374e-05  
  4.0000e-02    7.464e-09   -2.950e-07    1.095e-05  
  5.0000e-02    5.716e-09   -2.274e-07    8.640e-06  
  6.0000e-02    4.374e-09   -1.748e-07    6.762e-06  
  7.0000e-02    3.347e-09   -1.341e-07    5.259e-06  
  8.0000e-02    2.560e-09   -1.028e-07    4.069e-06  
  9.0000e-02    1.958e-09   -7.866e-08    3.137e-06  
    0.10000     1.498e-09   -6.016e-08    2.411e-06  
    0.11000     1.147e-09   -4.600e-08    1.850e-06  
    0.12000     8.780e-10   -3.517e-08    1.416e-06  
    0.13000     6.724e-10   -2.688e-08    1.083e-06  
    0.14000     5.152e-10   -2.055e-08    8.284e-07  
    0.15000     3.950e-10   -1.572e-08    6.328e-07  
    0.16000     3.030e-10   -1.202e-08    4.837e-07  
    0.17000     2.325e-10   -9.203e-09    3.693e-07  
    0.18000     1.786e-10   -7.044e-09    2.822e-07  
    0.19000     1.372e-10   -5.396e-09    2.159e-07  
    0.20000     1.055e-10   -4.135e-09    1.648e-07  
    0.21000     8.117e-11   -3.170e-09    1.261e-07  
    0.22000     6.251e-11   -2.434e-09    9.649e-08  
    0.23000     4.815e-11   -1.867e-09    7.368e-08  
    0.24000     3.713e-11   -1.435e-09    5.670e-08  
    0.25000     2.865e-11   -1.102e-09    4.313e-08  
    0.26000     2.213e-11   -8.484e-10    3.332e-08  
    0.27000     1.710e-11   -6.523e-10    2.537e-08  
    0.28000     1.322e-11   -5.024e-10    1.961e-08  
    0.29000     1.024e-11   -3.880e-10    1.499e-08  
    0.30000     7.930e-12   -2.984e-10    1.144e-08  
    0.31000     6.153e-12   -2.309e-10    8.953e-09  
    0.32000     4.775e-12   -1.776e-10    6.750e-09  
    0.33000     3.716e-12   -1.378e-10    5.329e-09  
    0.34000     2.892e-12   -1.059e-10    3.979e-09  
    0.35000     2.252e-12   -8.242e-11    3.197e-09  
    0.36000     1.755e-12   -6.395e-11    2.345e-09  
    0.37000     1.364e-12   -4.974e-11    1.847e-09  
    0.38000     1.066e-12   -3.908e-11    1.421e-09  
    0.39000     8.384e-13   -2.984e-11    1.066e-09  
    0.40000     6.537e-13   -2.274e-11    9.237e-10  
    0.41000     5.116e-13   -1.847e-11    7.105e-10  
    0.42000     4.050e-13   -1.421e-11    4.263e-10  
    0.43000     3.197e-13   -1.066e-11    4.263e-10  
    0.44000     2.487e-13   -8.527e-12    3.553e-10  
    0.45000     1.918e-13   -7.105e-12    2.132e-10  
    0.46000     1.492e-13   -5.684e-12    1.421e-10  
    0.47000     1.208e-13   -4.263e-12    1.421e-10  
    0.48000     8.527e-14   -2.842e-12    1.421e-10  
    0.49000     7.105e-14   -3.553e-12    1.421e-10  
    0.50000     6.395e-14   -1.421e-12   -7.105e-11  
    0.51000     4.974e-14   -7.105e-13    2.132e-10  
    0.52000     3.553e-14   -1.421e-12    7.105e-11  
    0.53000     2.842e-14   -1.421e-12   -7.105e-11  
    0.54000     2.842e-14   -7.105e-13      0.       
    0.55000     2.132e-14      0.         7.105e-11  
    0.56000     1.421e-14   -7.105e-13    7.105e-11  
    0.57000     1.421e-14   -7.105e-13   -7.105e-11  
    0.58000     1.421e-14      0.           0.       
    0.59000     1.421e-14      0.         7.105e-11  
    0.60000     7.105e-15      0.           0.       
    0.61000       0.        -7.105e-13      0.       
    0.62000       0.        -7.105e-13   -7.105e-11  
    0.63000     7.105e-15      0.        -1.575e-24  
    0.64000     7.105e-15    7.105e-13    7.105e-11  
    0.65000       0.           0.         7.105e-11  
    0.66000       0.        -7.105e-13   -7.105e-11  
    0.67000       0.           0.        -7.105e-11  
    0.68000     7.105e-15      0.         7.105e-11  
    0.69000       0.         7.105e-13      0.       
    0.70000       0.        -7.105e-13    7.105e-11  
    0.71000     7.105e-15      0.        -1.421e-10  
    0.72000       0.         7.105e-13    7.105e-11  
    0.73000       0.        -7.105e-13    7.105e-11  
    0.74000    -7.105e-15      0.        -1.421e-10  
    0.75000    -7.105e-15   -7.105e-13    7.105e-11  
    0.76000    -7.105e-15      0.        -7.105e-11  
    0.77000    -7.105e-15      0.         7.105e-11  
    0.78000       0.           0.           0.       
    0.79000       0.         7.105e-13      0.       
    0.80000       0.           0.         7.105e-11  
    0.81000       0.           0.        -7.105e-11  
    0.82000       0.           0.           0.       
    0.83000       0.           0.           0.       
    0.84000       0.           0.           0.       
    0.85000       0.           0.           0.       
    0.86000       0.           0.           0.       
    0.87000       0.           0.           0.       
    0.88000       0.           0.           0.       
    0.89000       0.           0.           0.       
    0.90000       0.           0.           0.       
    0.91000       0.           0.           0.       
    0.92000       0.           0.           0.       
    0.93000       0.           0.           0.       
    0.94000       0.           0.           0.       
    0.95000       0.           0.           0.       
    0.96000       0.           0.           0.       
    0.97000       0.           0.           0.       
    0.98000       0.           0.           0.       
    0.99000       0.           0.           0.       
    1.00000       0.           0.           0.       
    1.01000       0.           0.           0.       
    1.02000       0.           0.           0.       
    1.03000       0.           0.           0.       
    1.04000       0.           0.           0.       
    1.05000       0.           0.           0.       
    1.06000       0.           0.           0.       
    1.07000       0.           0.           0.       
    1.08000       0.           0.           0.       
    1.09000       0.           0.           0.       
    1.10000       0.           0.           0.       
    1.11000       0.           0.           0.       
    1.12000       0.           0.           0.       
    1.13000       0.           0.           0.       
    1.14000       0.           0.           0.       
    1.15000       0.           0.           0.       
    1.16000       0.           0.           0.       
    1.17000       0.           0.           0.       
    1.18000       0.           0.           0.       
    1.19000       0.           0.           0.       
    1.20000       0.           0.           0.       
    1.21000       0.           0.           0.       
    1.22000       0.           0.           0.       
    1.23000       0.           0.           0.       
    1.24000       0.           0.           0.       
    1.25000       0.           0.           0.       
    1.26000       0.           0.           0.       
    1.27000       0.           0.           0.       
    1.28000       0.           0.           0.       
    1.29000       0.           0.           0.       
    1.30000       0.           0.           0.       
y
-----------------------------------------------

          ***** job concluded
1****** HSPICE -- G-2012.06 32-BIT (May 27 2012) RHEL32 ******                  
 ******  
 *sample netlist for bsim6

  ******  job statistics summary tnom=  25.000 temp=  25.000 *****
  
  
 ******  Machine Information  ******
 CPU:
 model name	: Intel(R) Xeon(R) CPU           E5645  @ 2.40GHz
 cpu MHz	: 2394.056
  
 OS:
 Linux version 2.6.32-504.3.3.el6.x86_64 (mockbuild@x86-028.build.eng.bos.redhat.com) (gcc version 4.4.7 20120313 (Red Hat 4.4.7-9) (GCC) ) #1 SMP Fri Dec 12 16:05:43 EST 2014


  ******  HSPICE Threads Information  ******

  Command Line Threads Count :     1
  Available CPU Count        :    12
  Actual Threads Count       :     1


  ******  Circuit Statistics  ******
  # nodes       =      17 # elements   =       5
  # resistors   =       0 # capacitors =       0 # inductors   =       0
  # mutual_inds =       0 # vccs       =       0 # vcvs        =       0
  # cccs        =       0 # ccvs       =       0 # volt_srcs   =       4
  # curr_srcs   =       0 # diodes     =       0 # bjts        =       0
  # jfets       =       0 # mosfets    =       0 # U elements  =       0
  # T elements  =       0 # W elements =       0 # B elements  =       0
  # S elements  =       0 # P elements =       0 # va device   =       1
  # vector_srcs =       0 # N elements =       0


  ******  Runtime Statistics (seconds)  ******

  analysis           time    # points   tot. iter  conv.iter
  op point           0.00           1           0
  dc sweep           0.16        1044        2096
  readin             2.45
  errchk             0.04
  setup              0.00
  output             0.01


           peak memory used        117.27 megabytes
           total cpu time            2.66 seconds
           total elapsed time        9.97 seconds
           job started at     10:14:08 07/28/2015
           job ended   at     10:14:18 07/28/2015


 lic: Release hspice token(s) 
 lic: total license checkout elapse time:        1.10(s)
