 ****** HSPICE -- G-2012.06 32-BIT (May 27 2012) RHEL32 ******                  
  Copyright (C) 2012 Synopsys, Inc. All Rights Reserved.                        
  Unpublished-rights reserved under US copyright laws.
  This program is protected by law and is subject to the
  terms and conditions of the license agreement from Synopsys.
  Use of this program is your acceptance to be bound by the
  license agreement. HSPICE is the trademark of Synopsys, Inc.
  Input File: idvg_nmos.sp                                                      
  Command line options: -hdlpath ../code -i idvg_nmos.sp -o idvg_nmos
 lic:  
 lic: FLEXlm: v10.8 
 lic: USER:   sourabh              HOSTNAME: bwrcrdsl-3.eecs.berkeley.edu 
 lic: HOSTID:                      PID:      23689 
 lic: Using FLEXlm license file: 
 lic: 1701@sunv40z-1.eecs.berkeley.edu 
 lic: Checkout 1 hspice 
 lic: License/Maintenance for hspice will expire on 19-dec-2015/2014.09 
 lic: 1(in_use)/50(total) FLOATING license(s) on SERVER sunv40z-1.eecs.berkeley.
 lic:   
 Init: read install configuration file: /tools/synopsys/hspice/G-2012.06/hspice/meta.cfg
 **info** *pvaI* Module (bsim6): 4 unexpanded port, 0 init, 2615 behav, 63 contrib, 58/2705 expr(s)

 **info** *pvaI* Resizing DB size for v count = 1

 **info** *pvaI*        Has DIS (DT ST SB), 3 afCount

 **info** *pvaI*        0 const-G and 0 const-C, Has switch branch.

 **info** *pvaI* Module (bsim6): generated 7 flow node(s) during compilation.

 **info** *pvaI* #### Total 519 line-size(s), 58 expr(s), 63 contr(s), 0 init(s), 2615 behav(s), 4 port(s)

 Loading pVA library idvg_nmos.pvadir/pvaRTL_linux.so...
1****** HSPICE -- G-2012.06 32-BIT (May 27 2012) RHEL32 ******                  
 ******  
 *sample netlist for bsim6

  ******  circuit name directory
 circuit number to circuit name directory
   number circuitname                     definition         multiplier
        0 main circuit
        1 x1.                             bsim6(va)          1.00 
 **info** *pvaI* Creating Verilog-A module 'bsim6' for X1

  
      
 *****************************************************************
 ******  option summary
 ******
 runlvl  = 3         bypass  = 2         
  Opening plot unit= 15
 file=idvg_nmos.pa0                                                            

 ******  
 *sample netlist for bsim6

  ******  dc transfer curves tnom=  25.000 temp=  25.000 *****

   *** source        0:vb =   -0.3000        ***

x

        volt    param        param        param        current    
                    ids          gm           gm2          vd     
   -1.30000     1.342e-08      0.           0.        -1.342e-08  
   -1.29000     1.308e-08    1.342e-06      0.        -1.308e-08  
   -1.28000     1.275e-08   -3.398e-08    1.342e-04   -1.275e-08  
   -1.27000     1.243e-08   -3.327e-08   -1.376e-04   -1.243e-08  
   -1.26000     1.211e-08   -3.256e-08    7.134e-08   -1.211e-08  
   -1.25000     1.180e-08   -3.187e-08    7.049e-08   -1.180e-08  
   -1.24000     1.149e-08   -3.119e-08    6.899e-08   -1.149e-08  
   -1.23000     1.119e-08   -3.052e-08    6.821e-08   -1.119e-08  
   -1.22000     1.090e-08   -2.986e-08    6.651e-08   -1.090e-08  
   -1.21000     1.061e-08   -2.922e-08    6.594e-08   -1.061e-08  
   -1.20000     1.033e-08   -2.858e-08    6.459e-08   -1.033e-08  
   -1.19000     1.006e-08   -2.796e-08    6.366e-08   -1.006e-08  
   -1.18000     9.794e-09   -2.734e-08    6.246e-08   -9.794e-09  
   -1.17000     9.532e-09   -2.674e-08    6.132e-08   -9.532e-09  
   -1.16000     9.276e-09   -2.615e-08    6.033e-08   -9.276e-09  
   -1.15000     9.027e-09   -2.556e-08    5.933e-08   -9.027e-09  
   -1.14000     8.782e-09   -2.499e-08    5.841e-08   -8.782e-09  
   -1.13000     8.544e-09   -2.443e-08    5.720e-08   -8.544e-09  
   -1.12000     8.310e-09   -2.388e-08    5.627e-08   -8.310e-09  
   -1.11000     8.082e-09   -2.333e-08    5.521e-08   -8.082e-09  
   -1.10000     7.859e-09   -2.280e-08    5.443e-08   -7.859e-09  
   -1.09000     7.642e-09   -2.228e-08    5.322e-08   -7.642e-09  
   -1.08000     7.429e-09   -2.176e-08    5.244e-08   -7.429e-09  
   -1.07000     7.222e-09   -2.126e-08    5.130e-08   -7.222e-09  
   -1.06000     7.019e-09   -2.076e-08    5.059e-08   -7.019e-09  
   -1.05000     6.821e-09   -2.027e-08    4.952e-08   -6.821e-09  
   -1.04000     6.628e-09   -1.980e-08    4.867e-08   -6.628e-09  
   -1.03000     6.439e-09   -1.933e-08    4.775e-08   -6.439e-09  
   -1.02000     6.255e-09   -1.887e-08    4.690e-08   -6.255e-09  
   -1.01000     6.075e-09   -1.842e-08    4.597e-08   -6.075e-09  
   -1.00000     5.900e-09   -1.798e-08    4.519e-08   -5.900e-09  
   -0.99000     5.729e-09   -1.754e-08    4.412e-08   -5.729e-09  
   -0.98000     5.562e-09   -1.711e-08    4.349e-08   -5.562e-09  
   -0.97000     5.399e-09   -1.670e-08    4.270e-08   -5.399e-09  
   -0.96000     5.240e-09   -1.629e-08    4.171e-08   -5.240e-09  
   -0.95000     5.085e-09   -1.588e-08    4.093e-08   -5.085e-09  
   -0.94000     4.934e-09   -1.549e-08    4.029e-08   -4.934e-09  
   -0.93000     4.787e-09   -1.510e-08    3.922e-08   -4.787e-09  
   -0.92000     4.643e-09   -1.473e-08    3.872e-08   -4.643e-09  
   -0.91000     4.503e-09   -1.436e-08    3.787e-08   -4.503e-09  
   -0.90000     4.367e-09   -1.399e-08    3.695e-08   -4.367e-09  
   -0.89000     4.234e-09   -1.364e-08    3.638e-08   -4.234e-09  
   -0.88000     4.104e-09   -1.329e-08    3.574e-08   -4.104e-09  
   -0.87000     3.978e-09   -1.295e-08    3.482e-08   -3.978e-09  
   -0.86000     3.855e-09   -1.261e-08    3.418e-08   -3.855e-09  
   -0.85000     3.736e-09   -1.228e-08    3.347e-08   -3.736e-09  
   -0.84000     3.619e-09   -1.196e-08    3.268e-08   -3.619e-09  
   -0.83000     3.506e-09   -1.165e-08    3.233e-08   -3.506e-09  
   -0.82000     3.396e-09   -1.134e-08    3.119e-08   -3.396e-09  
   -0.81000     3.288e-09   -1.104e-08    3.091e-08   -3.288e-09  
   -0.80000     3.184e-09   -1.074e-08    2.998e-08   -3.184e-09  
   -0.79000     3.082e-09   -1.045e-08    2.956e-08   -3.082e-09  
   -0.78000     2.983e-09   -1.017e-08    2.892e-08   -2.983e-09  
   -0.77000     2.887e-09   -9.899e-09    2.807e-08   -2.887e-09  
   -0.76000     2.793e-09   -9.627e-09    2.750e-08   -2.793e-09  
   -0.75000     2.702e-09   -9.363e-09    2.721e-08   -2.702e-09  
   -0.74000     2.613e-09   -9.106e-09    2.643e-08   -2.613e-09  
   -0.73000     2.527e-09   -8.853e-09    2.565e-08   -2.527e-09  
   -0.72000     2.444e-09   -8.605e-09    2.530e-08   -2.444e-09  
   -0.71000     2.362e-09   -8.365e-09    2.480e-08   -2.362e-09  
   -0.70000     2.283e-09   -8.129e-09    2.402e-08   -2.283e-09  
   -0.69000     2.207e-09   -7.900e-09    2.359e-08   -2.207e-09  
   -0.68000     2.132e-09   -7.673e-09    2.295e-08   -2.132e-09  
   -0.67000     2.060e-09   -7.454e-09    2.267e-08   -2.060e-09  
   -0.66000     1.989e-09   -7.239e-09    2.196e-08   -1.989e-09  
   -0.65000     1.921e-09   -7.029e-09    2.146e-08   -1.921e-09  
   -0.64000     1.855e-09   -6.825e-09    2.096e-08   -1.855e-09  
   -0.63000     1.791e-09   -6.624e-09    2.046e-08   -1.791e-09  
   -0.62000     1.728e-09   -6.430e-09    2.004e-08   -1.728e-09  
   -0.61000     1.668e-09   -6.237e-09    1.947e-08   -1.668e-09  
   -0.60000     1.609e-09   -6.055e-09    1.926e-08   -1.609e-09  
   -0.59000     1.552e-09   -5.871e-09    1.826e-08   -1.552e-09  
   -0.58000     1.497e-09   -5.695e-09    1.833e-08   -1.497e-09  
   -0.57000     1.443e-09   -5.521e-09    1.762e-08   -1.443e-09  
   -0.56000     1.391e-09   -5.353e-09    1.741e-08   -1.391e-09  
   -0.55000     1.341e-09   -5.189e-09    1.677e-08   -1.341e-09  
   -0.54000     1.292e-09   -5.029e-09    1.641e-08   -1.292e-09  
   -0.53000     1.245e-09   -4.874e-09    1.599e-08   -1.245e-09  
   -0.52000     1.199e-09   -4.721e-09    1.549e-08   -1.199e-09  
   -0.51000     1.155e-09   -4.574e-09    1.535e-08   -1.155e-09  
   -0.50000     1.112e-09   -4.427e-09    1.464e-08   -1.112e-09  
   -0.49000     1.071e-09   -4.289e-09    1.471e-08   -1.071e-09  
   -0.48000     1.031e-09   -4.151e-09    1.386e-08   -1.031e-09  
   -0.47000     9.917e-10   -4.020e-09    1.378e-08   -9.917e-10  
   -0.46000     9.541e-10   -3.889e-09    1.315e-08   -9.541e-10  
   -0.45000     9.177e-10   -3.762e-09    1.307e-08   -9.177e-10  
   -0.44000     8.825e-10   -3.639e-09    1.272e-08   -8.825e-10  
   -0.43000     8.485e-10   -3.519e-09    1.229e-08   -8.485e-10  
   -0.42000     8.156e-10   -3.403e-09    1.201e-08   -8.156e-10  
   -0.41000     7.838e-10   -3.289e-09    1.151e-08   -7.838e-10  
   -0.40000     7.530e-10   -3.182e-09    1.144e-08   -7.530e-10  
   -0.39000     7.234e-10   -3.072e-09    1.073e-08   -7.234e-10  
   -0.38000     6.947e-10   -2.968e-09    1.101e-08   -6.947e-10  
   -0.37000     6.670e-10   -2.867e-09    1.037e-08   -6.670e-10  
   -0.36000     6.403e-10   -2.768e-09    1.009e-08   -6.403e-10  
   -0.35000     6.145e-10   -2.673e-09    9.877e-09   -6.145e-10  
   -0.34000     5.896e-10   -2.582e-09    9.521e-09   -5.896e-10  
   -0.33000     5.656e-10   -2.488e-09    9.095e-09   -5.656e-10  
   -0.32000     5.424e-10   -2.402e-09    9.379e-09   -5.424e-10  
   -0.31000     5.201e-10   -2.315e-09    8.598e-09   -5.201e-10  
   -0.30000     4.986e-10   -2.233e-09    8.740e-09   -4.986e-10  
   -0.29000     4.778e-10   -2.151e-09    8.171e-09   -4.778e-10  
   -0.28000     4.579e-10   -2.072e-09    8.242e-09   -4.579e-10  
   -0.27000     4.387e-10   -1.993e-09    7.887e-09   -4.387e-10  
   -0.26000     4.203e-10   -1.918e-09    7.887e-09   -4.203e-10  
   -0.25000     4.026e-10   -1.842e-09    7.532e-09   -4.026e-10  
   -0.24000     3.857e-10   -1.769e-09    7.532e-09   -3.857e-10  
   -0.23000     3.696e-10   -1.692e-09    7.390e-09   -3.696e-10  
   -0.22000     3.542e-10   -1.615e-09    7.674e-09   -3.542e-10  
   -0.21000     3.397e-10   -1.536e-09    7.674e-09   -3.397e-10  
   -0.20000     3.260e-10   -1.454e-09    7.887e-09   -3.260e-10  
   -0.19000     3.134e-10   -1.364e-09    8.242e-09   -3.134e-10  
   -0.18000     3.019e-10   -1.265e-09    9.024e-09   -3.019e-10  
   -0.17000     2.917e-10   -1.152e-09    9.805e-09   -2.917e-10  
   -0.16000     2.831e-10   -1.018e-09    1.137e-08   -2.831e-10  
   -0.15000     2.765e-10   -8.569e-10    1.336e-08   -2.765e-10  
   -0.14000     2.725e-10   -6.587e-10    1.613e-08   -2.725e-10  
   -0.13000     2.717e-10   -4.036e-10    1.982e-08   -2.717e-10  
   -0.12000     2.753e-10   -7.390e-11    2.551e-08   -2.753e-10  
   -0.11000     2.847e-10    3.595e-10    3.297e-08   -2.847e-10  
   -0.10000     3.018e-10    9.351e-10    4.334e-08   -3.018e-10  
 -9.0000e-02    3.293e-10    1.709e-09    5.755e-08   -3.293e-10  
 -8.0000e-02    3.710e-10    2.753e-09    7.738e-08   -3.710e-10  
 -7.0000e-02    4.321e-10    4.172e-09    1.044e-07   -4.321e-10  
 -6.0000e-02    5.194e-10    6.103e-09    1.420e-07   -5.194e-10  
 -5.0000e-02    6.429e-10    8.739e-09    1.931e-07   -6.429e-10  
 -4.0000e-02    8.157e-10    1.234e-08    2.636e-07   -8.157e-10  
 -3.0000e-02    1.056e-09    1.728e-08    3.605e-07   -1.056e-09  
 -2.0000e-02    1.389e-09    2.405e-08    4.936e-07   -1.389e-09  
 -1.0000e-02    1.850e-09    3.332e-08    6.766e-07   -1.850e-09  
    0.          2.484e-09    4.604e-08    9.273e-07   -2.484e-09  
  1.0000e-02    3.358e-09    6.347e-08    1.272e-06   -3.358e-09  
  2.0000e-02    4.559e-09    8.736e-08    1.743e-06   -4.559e-09  
  3.0000e-02    6.207e-09    1.201e-07    2.389e-06   -6.207e-09  
  4.0000e-02    8.466e-09    1.648e-07    3.271e-06   -8.466e-09  
  5.0000e-02    1.156e-08    2.259e-07    4.474e-06   -1.156e-08  
  6.0000e-02    1.578e-08    3.091e-07    6.108e-06   -1.578e-08  
  7.0000e-02    2.152e-08    4.219e-07    8.317e-06   -2.152e-08  
  8.0000e-02    2.931e-08    5.744e-07    1.129e-05   -2.931e-08  
  9.0000e-02    3.982e-08    7.790e-07    1.525e-05   -3.982e-08  
    0.10000     5.392e-08    1.051e-06    2.046e-05   -5.392e-08  
    0.11000     7.268e-08    1.410e-06    2.724e-05   -7.268e-08  
    0.12000     9.739e-08    1.876e-06    3.587e-05   -9.739e-08  
    0.13000     1.295e-07    2.471e-06    4.659e-05   -1.295e-07  
    0.14000     1.708e-07    3.215e-06    5.949e-05   -1.708e-07  
    0.15000     2.228e-07    4.124e-06    7.443e-05   -2.228e-07  
    0.16000     2.874e-07    5.205e-06    9.091e-05   -2.874e-07  
    0.17000     3.658e-07    6.453e-06    1.081e-04   -3.658e-07  
    0.18000     4.595e-07    7.848e-06    1.248e-04   -4.595e-07  
    0.19000     5.689e-07    9.361e-06    1.396e-04   -5.689e-07  
    0.20000     6.946e-07    1.095e-05    1.513e-04   -6.946e-07  
    0.21000     8.363e-07    1.257e-05    1.588e-04   -8.363e-07  
    0.22000     9.934e-07    1.417e-05    1.617e-04   -9.934e-07  
    0.23000     1.165e-06    1.571e-05    1.602e-04   -1.165e-06  
    0.24000     1.350e-06    1.717e-05    1.546e-04   -1.350e-06  
    0.25000     1.548e-06    1.853e-05    1.459e-04   -1.548e-06  
    0.26000     1.757e-06    1.976e-05    1.352e-04   -1.757e-06  
    0.27000     1.975e-06    2.086e-05    1.232e-04   -1.975e-06  
    0.28000     2.202e-06    2.185e-05    1.107e-04   -2.202e-06  
    0.29000     2.437e-06    2.271e-05    9.840e-05   -2.437e-06  
    0.30000     2.678e-06    2.347e-05    8.655e-05   -2.678e-06  
    0.31000     2.925e-06    2.412e-05    7.543e-05   -2.925e-06  
    0.32000     3.176e-06    2.468e-05    6.519e-05   -3.176e-06  
    0.33000     3.432e-06    2.515e-05    5.585e-05   -3.432e-06  
    0.34000     3.691e-06    2.555e-05    4.739e-05   -3.691e-06  
    0.35000     3.952e-06    2.588e-05    3.976e-05   -3.952e-06  
    0.36000     4.216e-06    2.615e-05    3.288e-05   -4.216e-06  
    0.37000     4.481e-06    2.636e-05    2.668e-05   -4.481e-06  
    0.38000     4.747e-06    2.652e-05    2.109e-05   -4.747e-06  
    0.39000     5.014e-06    2.663e-05    1.604e-05   -5.014e-06  
    0.40000     5.282e-06    2.670e-05    1.148e-05   -5.282e-06  
    0.41000     5.549e-06    2.674e-05    7.346e-06   -5.549e-06  
    0.42000     5.816e-06    2.674e-05    3.595e-06   -5.816e-06  
    0.43000     6.083e-06    2.671e-05    1.867e-07   -6.083e-06  
    0.44000     6.349e-06    2.666e-05   -2.916e-06   -6.349e-06  
    0.45000     6.613e-06    2.657e-05   -5.745e-06   -6.613e-06  
    0.46000     6.877e-06    2.647e-05   -8.327e-06   -6.877e-06  
    0.47000     7.138e-06    2.634e-05   -1.069e-05   -7.138e-06  
    0.48000     7.399e-06    2.619e-05   -1.285e-05   -7.399e-06  
    0.49000     7.657e-06    2.602e-05   -1.482e-05   -7.657e-06  
    0.50000     7.914e-06    2.584e-05   -1.664e-05   -7.914e-06  
    0.51000     8.168e-06    2.564e-05   -1.829e-05   -8.168e-06  
    0.52000     8.420e-06    2.543e-05   -1.982e-05   -8.420e-06  
    0.53000     8.670e-06    2.520e-05   -2.121e-05   -8.670e-06  
    0.54000     8.917e-06    2.497e-05   -2.249e-05   -8.917e-06  
    0.55000     9.161e-06    2.472e-05   -2.365e-05   -9.161e-06  
    0.56000     9.403e-06    2.446e-05   -2.472e-05   -9.403e-06  
    0.57000     9.643e-06    2.420e-05   -2.570e-05   -9.643e-06  
    0.58000     9.879e-06    2.392e-05   -2.659e-05   -9.879e-06  
    0.59000     1.011e-05    2.364e-05   -2.739e-05   -1.011e-05  
    0.60000     1.034e-05    2.336e-05   -2.813e-05   -1.034e-05  
    0.61000     1.057e-05    2.306e-05   -2.879e-05   -1.057e-05  
    0.62000     1.080e-05    2.276e-05   -2.939e-05   -1.080e-05  
    0.63000     1.102e-05    2.246e-05   -2.992e-05   -1.102e-05  
    0.64000     1.124e-05    2.215e-05   -3.040e-05   -1.124e-05  
    0.65000     1.145e-05    2.184e-05   -3.082e-05   -1.145e-05  
    0.66000     1.166e-05    2.152e-05   -3.119e-05   -1.166e-05  
    0.67000     1.187e-05    2.120e-05   -3.152e-05   -1.187e-05  
    0.68000     1.208e-05    2.088e-05   -3.180e-05   -1.208e-05  
    0.69000     1.228e-05    2.056e-05   -3.203e-05   -1.228e-05  
    0.70000     1.248e-05    2.024e-05   -3.223e-05   -1.248e-05  
    0.71000     1.267e-05    1.991e-05   -3.239e-05   -1.267e-05  
    0.72000     1.287e-05    1.959e-05   -3.251e-05   -1.287e-05  
    0.73000     1.306e-05    1.926e-05   -3.260e-05   -1.306e-05  
    0.74000     1.324e-05    1.893e-05   -3.265e-05   -1.324e-05  
    0.75000     1.343e-05    1.861e-05   -3.268e-05   -1.343e-05  
    0.76000     1.360e-05    1.828e-05   -3.268e-05   -1.360e-05  
    0.77000     1.378e-05    1.795e-05   -3.265e-05   -1.378e-05  
    0.78000     1.395e-05    1.763e-05   -3.259e-05   -1.395e-05  
    0.79000     1.412e-05    1.731e-05   -3.252e-05   -1.412e-05  
    0.80000     1.429e-05    1.698e-05   -3.242e-05   -1.429e-05  
    0.81000     1.445e-05    1.666e-05   -3.230e-05   -1.445e-05  
    0.82000     1.461e-05    1.634e-05   -3.216e-05   -1.461e-05  
    0.83000     1.477e-05    1.602e-05   -3.200e-05   -1.477e-05  
    0.84000     1.493e-05    1.571e-05   -3.182e-05   -1.493e-05  
    0.85000     1.508e-05    1.539e-05   -3.163e-05   -1.508e-05  
    0.86000     1.522e-05    1.508e-05   -3.142e-05   -1.522e-05  
    0.87000     1.537e-05    1.477e-05   -3.120e-05   -1.537e-05  
    0.88000     1.551e-05    1.446e-05   -3.097e-05   -1.551e-05  
    0.89000     1.565e-05    1.416e-05   -3.072e-05   -1.565e-05  
    0.90000     1.578e-05    1.386e-05   -3.047e-05   -1.578e-05  
    0.91000     1.592e-05    1.356e-05   -3.020e-05   -1.592e-05  
    0.92000     1.605e-05    1.326e-05   -2.992e-05   -1.605e-05  
    0.93000     1.617e-05    1.297e-05   -2.963e-05   -1.617e-05  
    0.94000     1.630e-05    1.268e-05   -2.934e-05   -1.630e-05  
    0.95000     1.642e-05    1.239e-05   -2.903e-05   -1.642e-05  
    0.96000     1.654e-05    1.211e-05   -2.873e-05   -1.654e-05  
    0.97000     1.665e-05    1.183e-05   -2.841e-05   -1.665e-05  
    0.98000     1.676e-05    1.155e-05   -2.809e-05   -1.676e-05  
    0.99000     1.687e-05    1.127e-05   -2.776e-05   -1.687e-05  
    1.00000     1.698e-05    1.100e-05   -2.743e-05   -1.698e-05  
    1.01000     1.709e-05    1.073e-05   -2.710e-05   -1.709e-05  
    1.02000     1.719e-05    1.047e-05   -2.676e-05   -1.719e-05  
    1.03000     1.729e-05    1.021e-05   -2.642e-05   -1.729e-05  
    1.04000     1.739e-05    9.952e-06   -2.607e-05   -1.739e-05  
    1.05000     1.748e-05    9.699e-06   -2.572e-05   -1.748e-05  
    1.06000     1.757e-05    9.448e-06   -2.538e-05   -1.757e-05  
    1.07000     1.766e-05    9.202e-06   -2.503e-05   -1.766e-05  
    1.08000     1.775e-05    8.958e-06   -2.468e-05   -1.775e-05  
    1.09000     1.783e-05    8.719e-06   -2.432e-05   -1.783e-05  
    1.10000     1.792e-05    8.482e-06   -2.397e-05   -1.792e-05  
    1.11000     1.800e-05    8.250e-06   -2.362e-05   -1.800e-05  
    1.12000     1.807e-05    8.021e-06   -2.327e-05   -1.807e-05  
    1.13000     1.815e-05    7.795e-06   -2.292e-05   -1.815e-05  
    1.14000     1.822e-05    7.573e-06   -2.257e-05   -1.822e-05  
    1.15000     1.829e-05    7.354e-06   -2.222e-05   -1.829e-05  
    1.16000     1.836e-05    7.139e-06   -2.187e-05   -1.836e-05  
    1.17000     1.843e-05    6.927e-06   -2.153e-05   -1.843e-05  
    1.18000     1.850e-05    6.718e-06   -2.118e-05   -1.850e-05  
    1.19000     1.856e-05    6.513e-06   -2.084e-05   -1.856e-05  
    1.20000     1.862e-05    6.312e-06   -2.050e-05   -1.862e-05  
    1.21000     1.868e-05    6.114e-06   -2.016e-05   -1.868e-05  
    1.22000     1.874e-05    5.919e-06   -1.982e-05   -1.874e-05  
    1.23000     1.879e-05    5.727e-06   -1.949e-05   -1.879e-05  
    1.24000     1.885e-05    5.539e-06   -1.916e-05   -1.885e-05  
    1.25000     1.890e-05    5.354e-06   -1.883e-05   -1.890e-05  
    1.26000     1.895e-05    5.172e-06   -1.851e-05   -1.895e-05  
    1.27000     1.900e-05    4.993e-06   -1.818e-05   -1.900e-05  
    1.28000     1.904e-05    4.818e-06   -1.786e-05   -1.904e-05  
    1.29000     1.909e-05    4.645e-06   -1.755e-05   -1.909e-05  
    1.30000     1.913e-05    4.476e-06   -1.724e-05   -1.913e-05  
y
-----------------------------------------------
 ******  
 *sample netlist for bsim6

  ******  dc transfer curves tnom=  25.000 temp=  25.000 *****

   *** source        0:vb =   -0.2000        ***

x

        volt    param        param        param        current    
                    ids          gm           gm2          vd     
   -1.30000     1.342e-08   -1.472e-05   -3.443e-06   -1.342e-08  
   -1.29000     1.308e-08   -1.912e-03   -1.919e-03   -1.308e-08  
   -1.28000     1.275e-08   -3.398e-08     -0.1897    -1.275e-08  
   -1.27000     1.243e-08   -3.326e-08      0.1912    -1.243e-08  
   -1.26000     1.211e-08   -3.256e-08    7.162e-08   -1.211e-08  
   -1.25000     1.180e-08   -3.187e-08    7.006e-08   -1.180e-08  
   -1.24000     1.149e-08   -3.119e-08    6.921e-08   -1.149e-08  
   -1.23000     1.119e-08   -3.052e-08    6.807e-08   -1.119e-08  
   -1.22000     1.090e-08   -2.986e-08    6.679e-08   -1.090e-08  
   -1.21000     1.061e-08   -2.922e-08    6.565e-08   -1.061e-08  
   -1.20000     1.033e-08   -2.858e-08    6.459e-08   -1.033e-08  
   -1.19000     1.006e-08   -2.796e-08    6.381e-08   -1.006e-08  
   -1.18000     9.793e-09   -2.734e-08    6.239e-08   -9.793e-09  
   -1.17000     9.532e-09   -2.674e-08    6.118e-08   -9.532e-09  
   -1.16000     9.276e-09   -2.614e-08    6.047e-08   -9.276e-09  
   -1.15000     9.026e-09   -2.556e-08    5.947e-08   -9.026e-09  
   -1.14000     8.782e-09   -2.499e-08    5.812e-08   -8.782e-09  
   -1.13000     8.543e-09   -2.443e-08    5.734e-08   -8.543e-09  
   -1.12000     8.310e-09   -2.387e-08    5.627e-08   -8.310e-09  
   -1.11000     8.082e-09   -2.333e-08    5.521e-08   -8.082e-09  
   -1.10000     7.859e-09   -2.280e-08    5.443e-08   -7.859e-09  
   -1.09000     7.641e-09   -2.228e-08    5.322e-08   -7.641e-09  
   -1.08000     7.429e-09   -2.176e-08    5.230e-08   -7.429e-09  
   -1.07000     7.221e-09   -2.126e-08    5.144e-08   -7.221e-09  
   -1.06000     7.019e-09   -2.076e-08    5.059e-08   -7.019e-09  
   -1.05000     6.821e-09   -2.027e-08    4.938e-08   -6.821e-09  
   -1.04000     6.627e-09   -1.980e-08    4.889e-08   -6.627e-09  
   -1.03000     6.439e-09   -1.933e-08    4.768e-08   -6.439e-09  
   -1.02000     6.255e-09   -1.887e-08    4.675e-08   -6.255e-09  
   -1.01000     6.075e-09   -1.842e-08    4.611e-08   -6.075e-09  
   -1.00000     5.899e-09   -1.797e-08    4.512e-08   -5.899e-09  
   -0.99000     5.728e-09   -1.754e-08    4.412e-08   -5.728e-09  
   -0.98000     5.561e-09   -1.711e-08    4.356e-08   -5.561e-09  
   -0.97000     5.398e-09   -1.670e-08    4.256e-08   -5.398e-09  
   -0.96000     5.240e-09   -1.629e-08    4.178e-08   -5.240e-09  
   -0.95000     5.085e-09   -1.588e-08    4.093e-08   -5.085e-09  
   -0.94000     4.934e-09   -1.549e-08    4.022e-08   -4.934e-09  
   -0.93000     4.786e-09   -1.510e-08    3.944e-08   -4.786e-09  
   -0.92000     4.643e-09   -1.473e-08    3.851e-08   -4.643e-09  
   -0.91000     4.503e-09   -1.435e-08    3.794e-08   -4.503e-09  
   -0.90000     4.367e-09   -1.399e-08    3.709e-08   -4.367e-09  
   -0.89000     4.234e-09   -1.364e-08    3.631e-08   -4.234e-09  
   -0.88000     4.104e-09   -1.329e-08    3.546e-08   -4.104e-09  
   -0.87000     3.978e-09   -1.295e-08    3.510e-08   -3.978e-09  
   -0.86000     3.855e-09   -1.261e-08    3.403e-08   -3.855e-09  
   -0.85000     3.736e-09   -1.228e-08    3.361e-08   -3.736e-09  
   -0.84000     3.619e-09   -1.196e-08    3.261e-08   -3.619e-09  
   -0.83000     3.506e-09   -1.165e-08    3.226e-08   -3.506e-09  
   -0.82000     3.395e-09   -1.134e-08    3.133e-08   -3.395e-09  
   -0.81000     3.288e-09   -1.104e-08    3.070e-08   -3.288e-09  
   -0.80000     3.183e-09   -1.074e-08    3.020e-08   -3.183e-09  
   -0.79000     3.082e-09   -1.046e-08    2.949e-08   -3.082e-09  
   -0.78000     2.983e-09   -1.017e-08    2.878e-08   -2.983e-09  
   -0.77000     2.886e-09   -9.897e-09    2.821e-08   -2.886e-09  
   -0.76000     2.793e-09   -9.627e-09    2.764e-08   -2.793e-09  
   -0.75000     2.702e-09   -9.364e-09    2.700e-08   -2.702e-09  
   -0.74000     2.613e-09   -9.105e-09    2.636e-08   -2.613e-09  
   -0.73000     2.527e-09   -8.854e-09    2.586e-08   -2.527e-09  
   -0.72000     2.444e-09   -8.605e-09    2.508e-08   -2.444e-09  
   -0.71000     2.362e-09   -8.365e-09    2.494e-08   -2.362e-09  
   -0.70000     2.283e-09   -8.129e-09    2.395e-08   -2.283e-09  
   -0.69000     2.207e-09   -7.898e-09    2.366e-08   -2.207e-09  
   -0.68000     2.132e-09   -7.672e-09    2.302e-08   -2.132e-09  
   -0.67000     2.060e-09   -7.454e-09    2.260e-08   -2.060e-09  
   -0.66000     1.989e-09   -7.238e-09    2.181e-08   -1.989e-09  
   -0.65000     1.921e-09   -7.029e-09    2.160e-08   -1.921e-09  
   -0.64000     1.855e-09   -6.823e-09    2.089e-08   -1.855e-09  
   -0.63000     1.791e-09   -6.626e-09    2.061e-08   -1.791e-09  
   -0.62000     1.728e-09   -6.428e-09    1.975e-08   -1.728e-09  
   -0.61000     1.668e-09   -6.239e-09    1.982e-08   -1.668e-09  
   -0.60000     1.609e-09   -6.052e-09    1.883e-08   -1.609e-09  
   -0.59000     1.552e-09   -5.871e-09    1.876e-08   -1.552e-09  
   -0.58000     1.497e-09   -5.694e-09    1.805e-08   -1.497e-09  
   -0.57000     1.443e-09   -5.522e-09    1.769e-08   -1.443e-09  
   -0.56000     1.391e-09   -5.353e-09    1.720e-08   -1.391e-09  
   -0.55000     1.341e-09   -5.189e-09    1.698e-08   -1.341e-09  
   -0.54000     1.292e-09   -5.029e-09    1.634e-08   -1.292e-09  
   -0.53000     1.245e-09   -4.874e-09    1.599e-08   -1.245e-09  
   -0.52000     1.199e-09   -4.719e-09    1.549e-08   -1.199e-09  
   -0.51000     1.155e-09   -4.574e-09    1.549e-08   -1.155e-09  
   -0.50000     1.112e-09   -4.429e-09    1.457e-08   -1.112e-09  
   -0.49000     1.071e-09   -4.288e-09    1.450e-08   -1.071e-09  
   -0.48000     1.031e-09   -4.151e-09    1.407e-08   -1.031e-09  
   -0.47000     9.917e-10   -4.019e-09    1.371e-08   -9.917e-10  
   -0.46000     9.540e-10   -3.887e-09    1.322e-08   -9.540e-10  
   -0.45000     9.177e-10   -3.762e-09    1.315e-08   -9.177e-10  
   -0.44000     8.825e-10   -3.639e-09    1.251e-08   -8.825e-10  
   -0.43000     8.484e-10   -3.519e-09    1.236e-08   -8.484e-10  
   -0.42000     8.155e-10   -3.401e-09    1.194e-08   -8.155e-10  
   -0.41000     7.837e-10   -3.291e-09    1.180e-08   -7.837e-10  
   -0.40000     7.530e-10   -3.180e-09    1.108e-08   -7.530e-10  
   -0.39000     7.233e-10   -3.072e-09    1.101e-08   -7.233e-10  
   -0.38000     6.947e-10   -2.967e-09    1.080e-08   -6.947e-10  
   -0.37000     6.670e-10   -2.868e-09    1.052e-08   -6.670e-10  
   -0.36000     6.403e-10   -2.766e-09    9.877e-09   -6.403e-10  
   -0.35000     6.145e-10   -2.674e-09    1.023e-08   -6.145e-10  
   -0.34000     5.896e-10   -2.580e-09    9.237e-09   -5.896e-10  
   -0.33000     5.656e-10   -2.489e-09    9.379e-09   -5.656e-10  
   -0.32000     5.424e-10   -2.399e-09    9.095e-09   -5.424e-10  
   -0.31000     5.201e-10   -2.316e-09    9.024e-09   -5.201e-10  
   -0.30000     4.986e-10   -2.228e-09    8.242e-09   -4.986e-10  
   -0.29000     4.779e-10   -2.151e-09    8.811e-09   -4.779e-10  
   -0.28000     4.580e-10   -2.068e-09    7.745e-09   -4.580e-10  
   -0.27000     4.389e-10   -1.990e-09    8.242e-09   -4.389e-10  
   -0.26000     4.206e-10   -1.912e-09    7.887e-09   -4.206e-10  
   -0.25000     4.030e-10   -1.834e-09    7.745e-09   -4.030e-10  
   -0.24000     3.862e-10   -1.758e-09    7.816e-09   -3.862e-10  
   -0.23000     3.703e-10   -1.677e-09    7.603e-09   -3.703e-10  
   -0.22000     3.552e-10   -1.597e-09    8.100e-09   -3.552e-10  
   -0.21000     3.410e-10   -1.509e-09    7.958e-09   -3.410e-10  
   -0.20000     3.278e-10   -1.419e-09    8.811e-09   -3.278e-10  
   -0.19000     3.158e-10   -1.317e-09    9.024e-09   -3.158e-10  
   -0.18000     3.052e-10   -1.200e-09    1.023e-08   -3.052e-10  
   -0.17000     2.962e-10   -1.062e-09    1.165e-08   -2.962e-10  
   -0.16000     2.893e-10   -8.974e-10    1.378e-08   -2.893e-10  
   -0.15000     2.849e-10   -6.935e-10    1.648e-08   -2.849e-10  
   -0.14000     2.840e-10   -4.349e-10    2.039e-08   -2.840e-10  
   -0.13000     2.874e-10   -9.805e-11    2.586e-08   -2.874e-10  
   -0.12000     2.966e-10    3.411e-10    3.368e-08   -2.966e-10  
   -0.11000     3.137e-10    9.251e-10    4.391e-08   -3.137e-10  
   -0.10000     3.413e-10    1.707e-09    5.841e-08   -3.413e-10  
 -9.0000e-02    3.831e-10    2.760e-09    7.816e-08   -3.831e-10  
 -8.0000e-02    4.444e-10    4.185e-09    1.054e-07   -4.444e-10  
 -7.0000e-02    5.321e-10    6.128e-09    1.425e-07   -5.321e-10  
 -6.0000e-02    6.559e-10    8.767e-09    1.943e-07   -6.559e-10  
 -5.0000e-02    8.289e-10    1.238e-08    2.640e-07   -8.289e-10  
 -4.0000e-02    1.069e-09    1.730e-08    3.609e-07   -1.069e-09  
 -3.0000e-02    1.402e-09    2.405e-08    4.928e-07   -1.402e-09  
 -2.0000e-02    1.861e-09    3.327e-08    6.742e-07   -1.861e-09  
 -1.0000e-02    2.493e-09    4.590e-08    9.226e-07   -2.493e-09  
    0.          3.361e-09    6.319e-08    1.263e-06   -3.361e-09  
  1.0000e-02    4.553e-09    8.683e-08    1.729e-06   -4.553e-09  
  2.0000e-02    6.186e-09    1.192e-07    2.365e-06   -6.186e-09  
  3.0000e-02    8.421e-09    1.633e-07    3.232e-06   -8.421e-09  
  4.0000e-02    1.147e-08    2.235e-07    4.414e-06   -1.147e-08  
  5.0000e-02    1.564e-08    3.053e-07    6.017e-06   -1.564e-08  
  6.0000e-02    2.129e-08    4.162e-07    8.182e-06   -2.129e-08  
  7.0000e-02    2.896e-08    5.658e-07    1.109e-05   -2.896e-08  
  8.0000e-02    3.929e-08    7.664e-07    1.496e-05   -3.929e-08  
  9.0000e-02    5.313e-08    1.033e-06    2.006e-05   -5.313e-08  
    0.10000     7.153e-08    1.384e-06    2.668e-05   -7.153e-08  
    0.11000     9.575e-08    1.840e-06    3.511e-05   -9.575e-08  
    0.12000     1.273e-07    2.422e-06    4.559e-05   -1.273e-07  
    0.13000     1.677e-07    3.151e-06    5.822e-05   -1.677e-07  
    0.14000     2.187e-07    4.042e-06    7.288e-05   -2.187e-07  
    0.15000     2.820e-07    5.104e-06    8.912e-05   -2.820e-07  
    0.16000     3.591e-07    6.331e-06    1.061e-04   -3.591e-07  
    0.17000     4.512e-07    7.708e-06    1.228e-04   -4.512e-07  
    0.18000     5.590e-07    9.205e-06    1.377e-04   -5.590e-07  
    0.19000     6.829e-07    1.078e-05    1.497e-04   -6.829e-07  
    0.20000     8.228e-07    1.239e-05    1.576e-04   -8.228e-07  
    0.21000     9.783e-07    1.399e-05    1.611e-04   -9.783e-07  
    0.22000     1.148e-06    1.554e-05    1.601e-04   -1.148e-06  
    0.23000     1.332e-06    1.701e-05    1.551e-04   -1.332e-06  
    0.24000     1.529e-06    1.838e-05    1.470e-04   -1.529e-06  
    0.25000     1.736e-06    1.963e-05    1.366e-04   -1.736e-06  
    0.26000     1.954e-06    2.076e-05    1.249e-04   -1.954e-06  
    0.27000     2.180e-06    2.176e-05    1.127e-04   -2.180e-06  
    0.28000     2.414e-06    2.265e-05    1.005e-04   -2.414e-06  
    0.29000     2.655e-06    2.342e-05    8.870e-05   -2.655e-06  
    0.30000     2.902e-06    2.410e-05    7.760e-05   -2.902e-06  
    0.31000     3.154e-06    2.468e-05    6.732e-05   -3.154e-06  
    0.32000     3.410e-06    2.517e-05    5.792e-05   -3.410e-06  
    0.33000     3.669e-06    2.559e-05    4.939e-05   -3.669e-06  
    0.34000     3.931e-06    2.593e-05    4.168e-05   -3.931e-06  
    0.35000     4.196e-06    2.622e-05    3.471e-05   -4.196e-06  
    0.36000     4.462e-06    2.645e-05    2.843e-05   -4.462e-06  
    0.37000     4.729e-06    2.662e-05    2.275e-05   -4.729e-06  
    0.38000     4.998e-06    2.675e-05    1.762e-05   -4.998e-06  
    0.39000     5.267e-06    2.684e-05    1.297e-05   -5.267e-06  
    0.40000     5.536e-06    2.689e-05    8.753e-06   -5.536e-06  
    0.41000     5.805e-06    2.690e-05    4.922e-06   -5.805e-06  
    0.42000     6.073e-06    2.689e-05    1.435e-06   -6.073e-06  
    0.43000     6.341e-06    2.684e-05   -1.744e-06   -6.341e-06  
    0.44000     6.607e-06    2.677e-05   -4.646e-06   -6.607e-06  
    0.45000     6.873e-06    2.667e-05   -7.300e-06   -6.873e-06  
    0.46000     7.137e-06    2.655e-05   -9.729e-06   -7.137e-06  
    0.47000     7.399e-06    2.641e-05   -1.196e-05   -7.399e-06  
    0.48000     7.660e-06    2.625e-05   -1.400e-05   -7.660e-06  
    0.49000     7.919e-06    2.607e-05   -1.587e-05   -7.919e-06  
    0.50000     8.176e-06    2.588e-05   -1.759e-05   -8.176e-06  
    0.51000     8.430e-06    2.568e-05   -1.917e-05   -8.430e-06  
    0.52000     8.683e-06    2.546e-05   -2.062e-05   -8.683e-06  
    0.53000     8.932e-06    2.523e-05   -2.195e-05   -8.932e-06  
    0.54000     9.180e-06    2.498e-05   -2.317e-05   -9.180e-06  
    0.55000     9.424e-06    2.473e-05   -2.429e-05   -9.424e-06  
    0.56000     9.666e-06    2.447e-05   -2.531e-05   -9.666e-06  
    0.57000     9.905e-06    2.420e-05   -2.624e-05   -9.905e-06  
    0.58000     1.014e-05    2.392e-05   -2.710e-05   -1.014e-05  
    0.59000     1.038e-05    2.363e-05   -2.787e-05   -1.038e-05  
    0.60000     1.061e-05    2.334e-05   -2.857e-05   -1.061e-05  
    0.61000     1.083e-05    2.304e-05   -2.921e-05   -1.083e-05  
    0.62000     1.106e-05    2.274e-05   -2.978e-05   -1.106e-05  
    0.63000     1.128e-05    2.243e-05   -3.030e-05   -1.128e-05  
    0.64000     1.150e-05    2.212e-05   -3.075e-05   -1.150e-05  
    0.65000     1.171e-05    2.180e-05   -3.116e-05   -1.171e-05  
    0.66000     1.192e-05    2.149e-05   -3.152e-05   -1.192e-05  
    0.67000     1.213e-05    2.117e-05   -3.182e-05   -1.213e-05  
    0.68000     1.234e-05    2.084e-05   -3.209e-05   -1.234e-05  
    0.69000     1.254e-05    2.052e-05   -3.231e-05   -1.254e-05  
    0.70000     1.274e-05    2.019e-05   -3.249e-05   -1.274e-05  
    0.71000     1.293e-05    1.986e-05   -3.264e-05   -1.293e-05  
    0.72000     1.312e-05    1.953e-05   -3.275e-05   -1.312e-05  
    0.73000     1.331e-05    1.921e-05   -3.283e-05   -1.331e-05  
    0.74000     1.350e-05    1.888e-05   -3.288e-05   -1.350e-05  
    0.75000     1.368e-05    1.855e-05   -3.290e-05   -1.368e-05  
    0.76000     1.386e-05    1.822e-05   -3.289e-05   -1.386e-05  
    0.77000     1.404e-05    1.789e-05   -3.285e-05   -1.404e-05  
    0.78000     1.421e-05    1.756e-05   -3.279e-05   -1.421e-05  
    0.79000     1.438e-05    1.724e-05   -3.270e-05   -1.438e-05  
    0.80000     1.454e-05    1.691e-05   -3.260e-05   -1.454e-05  
    0.81000     1.471e-05    1.659e-05   -3.247e-05   -1.471e-05  
    0.82000     1.487e-05    1.627e-05   -3.233e-05   -1.487e-05  
    0.83000     1.502e-05    1.595e-05   -3.216e-05   -1.502e-05  
    0.84000     1.517e-05    1.563e-05   -3.198e-05   -1.517e-05  
    0.85000     1.532e-05    1.532e-05   -3.178e-05   -1.532e-05  
    0.86000     1.547e-05    1.500e-05   -3.157e-05   -1.547e-05  
    0.87000     1.562e-05    1.469e-05   -3.134e-05   -1.562e-05  
    0.88000     1.576e-05    1.438e-05   -3.111e-05   -1.576e-05  
    0.89000     1.589e-05    1.408e-05   -3.085e-05   -1.589e-05  
    0.90000     1.603e-05    1.377e-05   -3.059e-05   -1.603e-05  
    0.91000     1.616e-05    1.347e-05   -3.032e-05   -1.616e-05  
    0.92000     1.629e-05    1.318e-05   -3.004e-05   -1.629e-05  
    0.93000     1.642e-05    1.288e-05   -2.975e-05   -1.642e-05  
    0.94000     1.654e-05    1.259e-05   -2.945e-05   -1.654e-05  
    0.95000     1.666e-05    1.230e-05   -2.914e-05   -1.666e-05  
    0.96000     1.678e-05    1.202e-05   -2.883e-05   -1.678e-05  
    0.97000     1.689e-05    1.174e-05   -2.851e-05   -1.689e-05  
    0.98000     1.700e-05    1.146e-05   -2.818e-05   -1.700e-05  
    0.99000     1.711e-05    1.118e-05   -2.785e-05   -1.711e-05  
    1.00000     1.722e-05    1.091e-05   -2.752e-05   -1.722e-05  
    1.01000     1.732e-05    1.064e-05   -2.718e-05   -1.732e-05  
    1.02000     1.742e-05    1.038e-05   -2.683e-05   -1.742e-05  
    1.03000     1.752e-05    1.012e-05   -2.649e-05   -1.752e-05  
    1.04000     1.762e-05    9.857e-06   -2.614e-05   -1.762e-05  
    1.05000     1.771e-05    9.603e-06   -2.579e-05   -1.771e-05  
    1.06000     1.780e-05    9.352e-06   -2.544e-05   -1.780e-05  
    1.07000     1.789e-05    9.105e-06   -2.509e-05   -1.789e-05  
    1.08000     1.798e-05    8.861e-06   -2.473e-05   -1.798e-05  
    1.09000     1.806e-05    8.621e-06   -2.438e-05   -1.806e-05  
    1.10000     1.814e-05    8.384e-06   -2.402e-05   -1.814e-05  
    1.11000     1.822e-05    8.151e-06   -2.367e-05   -1.822e-05  
    1.12000     1.830e-05    7.921e-06   -2.332e-05   -1.830e-05  
    1.13000     1.837e-05    7.695e-06   -2.296e-05   -1.837e-05  
    1.14000     1.845e-05    7.472e-06   -2.261e-05   -1.845e-05  
    1.15000     1.852e-05    7.253e-06   -2.226e-05   -1.852e-05  
    1.16000     1.858e-05    7.038e-06   -2.191e-05   -1.858e-05  
    1.17000     1.865e-05    6.826e-06   -2.156e-05   -1.865e-05  
    1.18000     1.871e-05    6.617e-06   -2.121e-05   -1.871e-05  
    1.19000     1.878e-05    6.412e-06   -2.087e-05   -1.878e-05  
    1.20000     1.884e-05    6.210e-06   -2.052e-05   -1.884e-05  
    1.21000     1.889e-05    6.011e-06   -2.018e-05   -1.889e-05  
    1.22000     1.895e-05    5.816e-06   -1.984e-05   -1.895e-05  
    1.23000     1.901e-05    5.625e-06   -1.951e-05   -1.901e-05  
    1.24000     1.906e-05    5.436e-06   -1.917e-05   -1.906e-05  
    1.25000     1.911e-05    5.251e-06   -1.884e-05   -1.911e-05  
    1.26000     1.916e-05    5.069e-06   -1.852e-05   -1.916e-05  
    1.27000     1.920e-05    4.890e-06   -1.819e-05   -1.920e-05  
    1.28000     1.925e-05    4.715e-06   -1.787e-05   -1.925e-05  
    1.29000     1.929e-05    4.542e-06   -1.755e-05   -1.929e-05  
    1.30000     1.934e-05    4.373e-06   -1.724e-05   -1.934e-05  
y
-----------------------------------------------
 ******  
 *sample netlist for bsim6

  ******  dc transfer curves tnom=  25.000 temp=  25.000 *****

   *** source        0:vb =   -0.1000        ***

x

        volt    param        param        param        current    
                    ids          gm           gm2          vd     
   -1.30000     1.342e-08   -1.487e-05   -3.364e-06   -1.342e-08  
   -1.29000     1.308e-08   -1.932e-03   -1.925e-03   -1.308e-08  
   -1.28000     1.275e-08   -3.397e-08     -0.1917    -1.275e-08  
   -1.27000     1.242e-08   -3.325e-08      0.1932    -1.242e-08  
   -1.26000     1.210e-08   -3.255e-08    7.134e-08   -1.210e-08  
   -1.25000     1.179e-08   -3.186e-08    7.049e-08   -1.179e-08  
   -1.24000     1.149e-08   -3.118e-08    6.892e-08   -1.149e-08  
   -1.23000     1.119e-08   -3.051e-08    6.800e-08   -1.119e-08  
   -1.22000     1.090e-08   -2.985e-08    6.679e-08   -1.090e-08  
   -1.21000     1.061e-08   -2.921e-08    6.587e-08   -1.061e-08  
   -1.20000     1.033e-08   -2.857e-08    6.445e-08   -1.033e-08  
   -1.19000     1.006e-08   -2.795e-08    6.359e-08   -1.006e-08  
   -1.18000     9.790e-09   -2.734e-08    6.246e-08   -9.790e-09  
   -1.17000     9.529e-09   -2.673e-08    6.132e-08   -9.529e-09  
   -1.16000     9.273e-09   -2.614e-08    6.040e-08   -9.273e-09  
   -1.15000     9.024e-09   -2.556e-08    5.940e-08   -9.024e-09  
   -1.14000     8.779e-09   -2.498e-08    5.819e-08   -8.779e-09  
   -1.13000     8.541e-09   -2.442e-08    5.734e-08   -8.541e-09  
   -1.12000     8.307e-09   -2.387e-08    5.606e-08   -8.307e-09  
   -1.11000     8.080e-09   -2.333e-08    5.535e-08   -8.080e-09  
   -1.10000     7.857e-09   -2.279e-08    5.421e-08   -7.857e-09  
   -1.09000     7.639e-09   -2.227e-08    5.350e-08   -7.639e-09  
   -1.08000     7.427e-09   -2.176e-08    5.215e-08   -7.427e-09  
   -1.07000     7.219e-09   -2.125e-08    5.137e-08   -7.219e-09  
   -1.06000     7.017e-09   -2.075e-08    5.059e-08   -7.017e-09  
   -1.05000     6.819e-09   -2.027e-08    4.952e-08   -6.819e-09  
   -1.04000     6.625e-09   -1.979e-08    4.867e-08   -6.625e-09  
   -1.03000     6.437e-09   -1.932e-08    4.768e-08   -6.437e-09  
   -1.02000     6.253e-09   -1.886e-08    4.682e-08   -6.253e-09  
   -1.01000     6.073e-09   -1.841e-08    4.604e-08   -6.073e-09  
   -1.00000     5.898e-09   -1.797e-08    4.512e-08   -5.898e-09  
   -0.99000     5.727e-09   -1.753e-08    4.427e-08   -5.727e-09  
   -0.98000     5.560e-09   -1.711e-08    4.341e-08   -5.560e-09  
   -0.97000     5.397e-09   -1.669e-08    4.242e-08   -5.397e-09  
   -0.96000     5.238e-09   -1.628e-08    4.199e-08   -5.238e-09  
   -0.95000     5.083e-09   -1.588e-08    4.093e-08   -5.083e-09  
   -0.94000     4.932e-09   -1.549e-08    4.000e-08   -4.932e-09  
   -0.93000     4.785e-09   -1.510e-08    3.951e-08   -4.785e-09  
   -0.92000     4.642e-09   -1.472e-08    3.858e-08   -4.642e-09  
   -0.91000     4.502e-09   -1.435e-08    3.773e-08   -4.502e-09  
   -0.90000     4.365e-09   -1.399e-08    3.730e-08   -4.365e-09  
   -0.89000     4.232e-09   -1.363e-08    3.610e-08   -4.232e-09  
   -0.88000     4.103e-09   -1.328e-08    3.567e-08   -4.103e-09  
   -0.87000     3.977e-09   -1.294e-08    3.489e-08   -3.977e-09  
   -0.86000     3.854e-09   -1.261e-08    3.425e-08   -3.854e-09  
   -0.85000     3.735e-09   -1.228e-08    3.332e-08   -3.735e-09  
   -0.84000     3.618e-09   -1.196e-08    3.283e-08   -3.618e-09  
   -0.83000     3.505e-09   -1.165e-08    3.212e-08   -3.505e-09  
   -0.82000     3.394e-09   -1.134e-08    3.126e-08   -3.394e-09  
   -0.81000     3.287e-09   -1.104e-08    3.098e-08   -3.287e-09  
   -0.80000     3.183e-09   -1.074e-08    2.991e-08   -3.183e-09  
   -0.79000     3.081e-09   -1.045e-08    2.956e-08   -3.081e-09  
   -0.78000     2.982e-09   -1.017e-08    2.885e-08   -2.982e-09  
   -0.77000     2.886e-09   -9.894e-09    2.814e-08   -2.886e-09  
   -0.76000     2.792e-09   -9.624e-09    2.764e-08   -2.792e-09  
   -0.75000     2.701e-09   -9.361e-09    2.700e-08   -2.701e-09  
   -0.74000     2.613e-09   -9.103e-09    2.636e-08   -2.613e-09  
   -0.73000     2.526e-09   -8.851e-09    2.579e-08   -2.526e-09  
   -0.72000     2.443e-09   -8.603e-09    2.522e-08   -2.443e-09  
   -0.71000     2.362e-09   -8.362e-09    2.473e-08   -2.362e-09  
   -0.70000     2.283e-09   -8.127e-09    2.409e-08   -2.283e-09  
   -0.69000     2.206e-09   -7.895e-09    2.352e-08   -2.206e-09  
   -0.68000     2.131e-09   -7.671e-09    2.323e-08   -2.131e-09  
   -0.67000     2.059e-09   -7.453e-09    2.238e-08   -2.059e-09  
   -0.66000     1.989e-09   -7.235e-09    2.181e-08   -1.989e-09  
   -0.65000     1.921e-09   -7.028e-09    2.174e-08   -1.921e-09  
   -0.64000     1.854e-09   -6.821e-09    2.075e-08   -1.854e-09  
   -0.63000     1.790e-09   -6.624e-09    2.068e-08   -1.790e-09  
   -0.62000     1.728e-09   -6.427e-09    1.975e-08   -1.728e-09  
   -0.61000     1.667e-09   -6.237e-09    1.968e-08   -1.667e-09  
   -0.60000     1.608e-09   -6.050e-09    1.897e-08   -1.608e-09  
   -0.59000     1.552e-09   -5.869e-09    1.869e-08   -1.552e-09  
   -0.58000     1.496e-09   -5.693e-09    1.812e-08   -1.496e-09  
   -0.57000     1.443e-09   -5.519e-09    1.762e-08   -1.443e-09  
   -0.56000     1.391e-09   -5.353e-09    1.734e-08   -1.391e-09  
   -0.55000     1.341e-09   -5.188e-09    1.670e-08   -1.341e-09  
   -0.54000     1.292e-09   -5.029e-09    1.648e-08   -1.292e-09  
   -0.53000     1.245e-09   -4.871e-09    1.592e-08   -1.245e-09  
   -0.52000     1.199e-09   -4.719e-09    1.577e-08   -1.199e-09  
   -0.51000     1.155e-09   -4.572e-09    1.513e-08   -1.155e-09  
   -0.50000     1.112e-09   -4.428e-09    1.478e-08   -1.112e-09  
   -0.49000     1.070e-09   -4.286e-09    1.435e-08   -1.070e-09  
   -0.48000     1.030e-09   -4.150e-09    1.421e-08   -1.030e-09  
   -0.47000     9.914e-10   -4.017e-09    1.357e-08   -9.914e-10  
   -0.46000     9.538e-10   -3.887e-09    1.329e-08   -9.538e-10  
   -0.45000     9.174e-10   -3.761e-09    1.307e-08   -9.174e-10  
   -0.44000     8.822e-10   -3.638e-09    1.258e-08   -8.822e-10  
   -0.43000     8.482e-10   -3.518e-09    1.229e-08   -8.482e-10  
   -0.42000     8.153e-10   -3.401e-09    1.201e-08   -8.153e-10  
   -0.41000     7.835e-10   -3.288e-09    1.165e-08   -7.835e-10  
   -0.40000     7.528e-10   -3.180e-09    1.130e-08   -7.528e-10  
   -0.39000     7.231e-10   -3.070e-09    1.087e-08   -7.231e-10  
   -0.38000     6.945e-10   -2.969e-09    1.094e-08   -6.945e-10  
   -0.37000     6.668e-10   -2.865e-09    1.016e-08   -6.668e-10  
   -0.36000     6.401e-10   -2.768e-09    1.037e-08   -6.401e-10  
   -0.35000     6.143e-10   -2.670e-09    9.734e-09   -6.143e-10  
   -0.34000     5.895e-10   -2.579e-09    9.805e-09   -5.895e-10  
   -0.33000     5.655e-10   -2.488e-09    9.095e-09   -5.655e-10  
   -0.32000     5.424e-10   -2.397e-09    9.095e-09   -5.424e-10  
   -0.31000     5.201e-10   -2.313e-09    9.024e-09   -5.201e-10  
   -0.30000     4.986e-10   -2.227e-09    8.455e-09   -4.986e-10  
   -0.29000     4.780e-10   -2.146e-09    8.598e-09   -4.780e-10  
   -0.28000     4.582e-10   -2.063e-09    8.100e-09   -4.582e-10  
   -0.27000     4.391e-10   -1.982e-09    8.242e-09   -4.391e-10  
   -0.26000     4.209e-10   -1.904e-09    8.100e-09   -4.209e-10  
   -0.25000     4.035e-10   -1.822e-09    7.887e-09   -4.035e-10  
   -0.24000     3.869e-10   -1.741e-09    8.171e-09   -3.869e-10  
   -0.23000     3.713e-10   -1.656e-09    8.100e-09   -3.713e-10  
   -0.22000     3.566e-10   -1.566e-09    8.527e-09   -3.566e-10  
   -0.21000     3.429e-10   -1.470e-09    8.953e-09   -3.429e-10  
   -0.20000     3.305e-10   -1.364e-09    9.592e-09   -3.305e-10  
   -0.19000     3.195e-10   -1.243e-09    1.059e-08   -3.195e-10  
   -0.18000     3.102e-10   -1.100e-09    1.215e-08   -3.102e-10  
   -0.17000     3.031e-10   -9.280e-10    1.428e-08   -3.031e-10  
   -0.16000     2.986e-10   -7.141e-10    1.720e-08   -2.986e-10  
   -0.15000     2.977e-10   -4.448e-10    2.139e-08   -2.977e-10  
   -0.14000     3.013e-10   -9.663e-11    2.693e-08   -3.013e-10  
   -0.13000     3.109e-10    3.588e-10    3.482e-08   -3.109e-10  
   -0.12000     3.286e-10    9.628e-10    4.555e-08   -3.286e-10  
   -0.11000     3.572e-10    1.772e-09    6.040e-08   -3.572e-10  
   -0.10000     4.004e-10    2.856e-09    8.093e-08   -4.004e-10  
 -9.0000e-02    4.635e-10    4.324e-09    1.084e-07   -4.635e-10  
 -8.0000e-02    5.537e-10    6.312e-09    1.468e-07   -5.537e-10  
 -7.0000e-02    6.808e-10    9.018e-09    1.989e-07   -6.808e-10  
 -6.0000e-02    8.580e-10    1.270e-08    2.706e-07   -8.580e-10  
 -5.0000e-02    1.104e-09    1.773e-08    3.686e-07   -1.104e-09  
 -4.0000e-02    1.443e-09    2.459e-08    5.024e-07   -1.443e-09  
 -3.0000e-02    1.911e-09    3.396e-08    6.861e-07   -1.911e-09  
 -2.0000e-02    2.553e-09    4.675e-08    9.369e-07   -2.553e-09  
 -1.0000e-02    3.434e-09    6.423e-08    1.280e-06   -3.434e-09  
    0.          4.641e-09    8.810e-08    1.748e-06   -4.641e-09  
  1.0000e-02    6.291e-09    1.207e-07    2.387e-06   -6.291e-09  
  2.0000e-02    8.546e-09    1.650e-07    3.256e-06   -8.546e-09  
  3.0000e-02    1.162e-08    2.254e-07    4.438e-06   -1.162e-08  
  4.0000e-02    1.580e-08    3.074e-07    6.038e-06   -1.580e-08  
  5.0000e-02    2.148e-08    4.183e-07    8.196e-06   -2.148e-08  
  6.0000e-02    2.915e-08    5.676e-07    1.109e-05   -2.915e-08  
  7.0000e-02    3.948e-08    7.674e-07    1.493e-05   -3.948e-08  
  8.0000e-02    5.329e-08    1.033e-06    1.998e-05   -5.329e-08  
  9.0000e-02    7.163e-08    1.381e-06    2.653e-05   -7.163e-08  
    0.10000     9.573e-08    1.834e-06    3.487e-05   -9.573e-08  
    0.11000     1.271e-07    2.410e-06    4.522e-05   -1.271e-07  
    0.12000     1.672e-07    3.132e-06    5.768e-05   -1.672e-07  
    0.13000     2.178e-07    4.014e-06    7.215e-05   -2.178e-07  
    0.14000     2.806e-07    5.064e-06    8.818e-05   -2.806e-07  
    0.15000     3.570e-07    6.279e-06    1.050e-04   -3.570e-07  
    0.16000     4.483e-07    7.643e-06    1.215e-04   -4.483e-07  
    0.17000     5.552e-07    9.127e-06    1.364e-04   -5.552e-07  
    0.18000     6.782e-07    1.069e-05    1.484e-04   -6.782e-07  
    0.19000     8.171e-07    1.230e-05    1.566e-04   -8.171e-07  
    0.20000     9.715e-07    1.389e-05    1.603e-04   -9.715e-07  
    0.21000     1.141e-06    1.544e-05    1.596e-04   -1.141e-06  
    0.22000     1.324e-06    1.691e-05    1.550e-04   -1.324e-06  
    0.23000     1.519e-06    1.829e-05    1.473e-04   -1.519e-06  
    0.24000     1.726e-06    1.955e-05    1.373e-04   -1.726e-06  
    0.25000     1.943e-06    2.069e-05    1.259e-04   -1.943e-06  
    0.26000     2.169e-06    2.171e-05    1.140e-04   -2.169e-06  
    0.27000     2.403e-06    2.261e-05    1.019e-04   -2.403e-06  
    0.28000     2.644e-06    2.340e-05    9.029e-05   -2.644e-06  
    0.29000     2.891e-06    2.409e-05    7.926e-05   -2.891e-06  
    0.30000     3.143e-06    2.469e-05    6.902e-05   -3.143e-06  
    0.31000     3.399e-06    2.520e-05    5.962e-05   -3.399e-06  
    0.32000     3.659e-06    2.563e-05    5.108e-05   -3.659e-06  
    0.33000     3.922e-06    2.599e-05    4.333e-05   -3.922e-06  
    0.34000     4.187e-06    2.629e-05    3.632e-05   -4.187e-06  
    0.35000     4.455e-06    2.654e-05    2.999e-05   -4.455e-06  
    0.36000     4.723e-06    2.673e-05    2.425e-05   -4.723e-06  
    0.37000     4.993e-06    2.687e-05    1.906e-05   -4.993e-06  
    0.38000     5.263e-06    2.697e-05    1.435e-05   -5.263e-06  
    0.39000     5.534e-06    2.703e-05    1.007e-05   -5.534e-06  
    0.40000     5.805e-06    2.706e-05    6.178e-06   -5.805e-06  
    0.41000     6.075e-06    2.705e-05    2.627e-06   -6.075e-06  
    0.42000     6.344e-06    2.702e-05   -6.158e-07   -6.344e-06  
    0.43000     6.613e-06    2.696e-05   -3.582e-06   -6.613e-06  
    0.44000     6.881e-06    2.687e-05   -6.298e-06   -6.881e-06  
    0.45000     7.147e-06    2.676e-05   -8.789e-06   -7.147e-06  
    0.46000     7.411e-06    2.662e-05   -1.107e-05   -7.411e-06  
    0.47000     7.675e-06    2.647e-05   -1.318e-05   -7.675e-06  
    0.48000     7.936e-06    2.630e-05   -1.511e-05   -7.936e-06  
    0.49000     8.195e-06    2.612e-05   -1.688e-05   -8.195e-06  
    0.50000     8.452e-06    2.592e-05   -1.852e-05   -8.452e-06  
    0.51000     8.707e-06    2.571e-05   -2.002e-05   -8.707e-06  
    0.52000     8.959e-06    2.548e-05   -2.140e-05   -8.959e-06  
    0.53000     9.209e-06    2.524e-05   -2.267e-05   -9.209e-06  
    0.54000     9.456e-06    2.499e-05   -2.384e-05   -9.456e-06  
    0.55000     9.701e-06    2.473e-05   -2.491e-05   -9.701e-06  
    0.56000     9.943e-06    2.446e-05   -2.589e-05   -9.943e-06  
    0.57000     1.018e-05    2.419e-05   -2.678e-05   -1.018e-05  
    0.58000     1.042e-05    2.391e-05   -2.760e-05   -1.042e-05  
    0.59000     1.065e-05    2.361e-05   -2.835e-05   -1.065e-05  
    0.60000     1.088e-05    2.332e-05   -2.902e-05   -1.088e-05  
    0.61000     1.111e-05    2.302e-05   -2.963e-05   -1.111e-05  
    0.62000     1.133e-05    2.271e-05   -3.018e-05   -1.133e-05  
    0.63000     1.155e-05    2.240e-05   -3.067e-05   -1.155e-05  
    0.64000     1.177e-05    2.208e-05   -3.111e-05   -1.177e-05  
    0.65000     1.199e-05    2.177e-05   -3.150e-05   -1.199e-05  
    0.66000     1.220e-05    2.144e-05   -3.184e-05   -1.220e-05  
    0.67000     1.240e-05    2.112e-05   -3.213e-05   -1.240e-05  
    0.68000     1.261e-05    2.079e-05   -3.238e-05   -1.261e-05  
    0.69000     1.281e-05    2.047e-05   -3.259e-05   -1.281e-05  
    0.70000     1.301e-05    2.014e-05   -3.276e-05   -1.301e-05  
    0.71000     1.320e-05    1.981e-05   -3.290e-05   -1.320e-05  
    0.72000     1.340e-05    1.948e-05   -3.300e-05   -1.340e-05  
    0.73000     1.358e-05    1.915e-05   -3.307e-05   -1.358e-05  
    0.74000     1.377e-05    1.881e-05   -3.311e-05   -1.377e-05  
    0.75000     1.395e-05    1.848e-05   -3.312e-05   -1.395e-05  
    0.76000     1.413e-05    1.815e-05   -3.310e-05   -1.413e-05  
    0.77000     1.430e-05    1.782e-05   -3.305e-05   -1.430e-05  
    0.78000     1.447e-05    1.749e-05   -3.299e-05   -1.447e-05  
    0.79000     1.464e-05    1.717e-05   -3.290e-05   -1.464e-05  
    0.80000     1.481e-05    1.684e-05   -3.278e-05   -1.481e-05  
    0.81000     1.497e-05    1.652e-05   -3.265e-05   -1.497e-05  
    0.82000     1.513e-05    1.619e-05   -3.250e-05   -1.513e-05  
    0.83000     1.528e-05    1.587e-05   -3.233e-05   -1.528e-05  
    0.84000     1.544e-05    1.555e-05   -3.214e-05   -1.544e-05  
    0.85000     1.559e-05    1.523e-05   -3.194e-05   -1.559e-05  
    0.86000     1.573e-05    1.492e-05   -3.172e-05   -1.573e-05  
    0.87000     1.587e-05    1.461e-05   -3.149e-05   -1.587e-05  
    0.88000     1.601e-05    1.430e-05   -3.124e-05   -1.601e-05  
    0.89000     1.615e-05    1.399e-05   -3.099e-05   -1.615e-05  
    0.90000     1.629e-05    1.369e-05   -3.072e-05   -1.629e-05  
    0.91000     1.642e-05    1.338e-05   -3.044e-05   -1.642e-05  
    0.92000     1.654e-05    1.309e-05   -3.016e-05   -1.654e-05  
    0.93000     1.667e-05    1.279e-05   -2.986e-05   -1.667e-05  
    0.94000     1.679e-05    1.250e-05   -2.956e-05   -1.679e-05  
    0.95000     1.691e-05    1.221e-05   -2.924e-05   -1.691e-05  
    0.96000     1.703e-05    1.192e-05   -2.893e-05   -1.703e-05  
    0.97000     1.714e-05    1.164e-05   -2.860e-05   -1.714e-05  
    0.98000     1.725e-05    1.136e-05   -2.827e-05   -1.725e-05  
    0.99000     1.736e-05    1.108e-05   -2.794e-05   -1.736e-05  
    1.00000     1.746e-05    1.081e-05   -2.760e-05   -1.746e-05  
    1.01000     1.757e-05    1.054e-05   -2.726e-05   -1.757e-05  
    1.02000     1.767e-05    1.028e-05   -2.691e-05   -1.767e-05  
    1.03000     1.777e-05    1.001e-05   -2.656e-05   -1.777e-05  
    1.04000     1.786e-05    9.756e-06   -2.621e-05   -1.786e-05  
    1.05000     1.795e-05    9.501e-06   -2.586e-05   -1.795e-05  
    1.06000     1.804e-05    9.249e-06   -2.550e-05   -1.804e-05  
    1.07000     1.813e-05    9.001e-06   -2.515e-05   -1.813e-05  
    1.08000     1.822e-05    8.757e-06   -2.479e-05   -1.822e-05  
    1.09000     1.830e-05    8.516e-06   -2.443e-05   -1.830e-05  
    1.10000     1.838e-05    8.279e-06   -2.408e-05   -1.838e-05  
    1.11000     1.846e-05    8.045e-06   -2.372e-05   -1.846e-05  
    1.12000     1.853e-05    7.815e-06   -2.336e-05   -1.853e-05  
    1.13000     1.861e-05    7.589e-06   -2.300e-05   -1.861e-05  
    1.14000     1.868e-05    7.366e-06   -2.265e-05   -1.868e-05  
    1.15000     1.875e-05    7.146e-06   -2.229e-05   -1.875e-05  
    1.16000     1.881e-05    6.930e-06   -2.194e-05   -1.881e-05  
    1.17000     1.888e-05    6.718e-06   -2.159e-05   -1.888e-05  
    1.18000     1.894e-05    6.509e-06   -2.124e-05   -1.894e-05  
    1.19000     1.900e-05    6.304e-06   -2.089e-05   -1.900e-05  
    1.20000     1.906e-05    6.102e-06   -2.055e-05   -1.906e-05  
    1.21000     1.912e-05    5.903e-06   -2.020e-05   -1.912e-05  
    1.22000     1.917e-05    5.708e-06   -1.986e-05   -1.917e-05  
    1.23000     1.923e-05    5.516e-06   -1.952e-05   -1.923e-05  
    1.24000     1.928e-05    5.327e-06   -1.919e-05   -1.928e-05  
    1.25000     1.933e-05    5.142e-06   -1.885e-05   -1.933e-05  
    1.26000     1.938e-05    4.960e-06   -1.853e-05   -1.938e-05  
    1.27000     1.942e-05    4.781e-06   -1.820e-05   -1.942e-05  
    1.28000     1.947e-05    4.606e-06   -1.788e-05   -1.947e-05  
    1.29000     1.951e-05    4.433e-06   -1.756e-05   -1.951e-05  
    1.30000     1.955e-05    4.264e-06   -1.724e-05   -1.955e-05  
y
-----------------------------------------------
 ******  
 *sample netlist for bsim6

  ******  dc transfer curves tnom=  25.000 temp=  25.000 *****

   *** source        0:vb =    0.            ***

x

        volt    param        param        param        current    
                    ids          gm           gm2          vd     
   -1.30000     1.330e-08   -1.504e-05   -3.280e-06   -1.330e-08  
   -1.29000     1.296e-08   -1.954e-03   -1.930e-03   -1.296e-08  
   -1.28000     1.263e-08   -3.365e-08     -0.1939    -1.263e-08  
   -1.27000     1.231e-08   -3.295e-08      0.1954    -1.231e-08  
   -1.26000     1.199e-08   -3.225e-08    7.063e-08   -1.199e-08  
   -1.25000     1.168e-08   -3.157e-08    6.970e-08   -1.168e-08  
   -1.24000     1.138e-08   -3.089e-08    6.835e-08   -1.138e-08  
   -1.23000     1.108e-08   -3.023e-08    6.750e-08   -1.108e-08  
   -1.22000     1.080e-08   -2.958e-08    6.594e-08   -1.080e-08  
   -1.21000     1.051e-08   -2.894e-08    6.530e-08   -1.051e-08  
   -1.20000     1.024e-08   -2.831e-08    6.409e-08   -1.024e-08  
   -1.19000     9.965e-09   -2.769e-08    6.288e-08   -9.965e-09  
   -1.18000     9.700e-09   -2.708e-08    6.182e-08   -9.700e-09  
   -1.17000     9.441e-09   -2.648e-08    6.089e-08   -9.441e-09  
   -1.16000     9.188e-09   -2.590e-08    5.976e-08   -9.188e-09  
   -1.15000     8.940e-09   -2.532e-08    5.869e-08   -8.940e-09  
   -1.14000     8.698e-09   -2.475e-08    5.770e-08   -8.698e-09  
   -1.13000     8.462e-09   -2.420e-08    5.691e-08   -8.462e-09  
   -1.12000     8.231e-09   -2.365e-08    5.556e-08   -8.231e-09  
   -1.11000     8.005e-09   -2.311e-08    5.485e-08   -8.005e-09  
   -1.10000     7.784e-09   -2.258e-08    5.379e-08   -7.784e-09  
   -1.09000     7.569e-09   -2.206e-08    5.272e-08   -7.569e-09  
   -1.08000     7.358e-09   -2.155e-08    5.187e-08   -7.358e-09  
   -1.07000     7.153e-09   -2.105e-08    5.095e-08   -7.153e-09  
   -1.06000     6.952e-09   -2.056e-08    5.002e-08   -6.952e-09  
   -1.05000     6.756e-09   -2.008e-08    4.903e-08   -6.756e-09  
   -1.04000     6.564e-09   -1.961e-08    4.825e-08   -6.564e-09  
   -1.03000     6.377e-09   -1.914e-08    4.732e-08   -6.377e-09  
   -1.02000     6.195e-09   -1.869e-08    4.647e-08   -6.195e-09  
   -1.01000     6.017e-09   -1.824e-08    4.547e-08   -6.017e-09  
   -1.00000     5.843e-09   -1.780e-08    4.462e-08   -5.843e-09  
   -0.99000     5.674e-09   -1.737e-08    4.391e-08   -5.674e-09  
   -0.98000     5.508e-09   -1.695e-08    4.306e-08   -5.508e-09  
   -0.97000     5.347e-09   -1.654e-08    4.221e-08   -5.347e-09  
   -0.96000     5.190e-09   -1.613e-08    4.128e-08   -5.190e-09  
   -0.95000     5.036e-09   -1.573e-08    4.064e-08   -5.036e-09  
   -0.94000     4.887e-09   -1.534e-08    3.972e-08   -4.887e-09  
   -0.93000     4.741e-09   -1.496e-08    3.915e-08   -4.741e-09  
   -0.92000     4.599e-09   -1.459e-08    3.816e-08   -4.599e-09  
   -0.91000     4.460e-09   -1.422e-08    3.745e-08   -4.460e-09  
   -0.90000     4.325e-09   -1.386e-08    3.674e-08   -4.325e-09  
   -0.89000     4.193e-09   -1.351e-08    3.617e-08   -4.193e-09  
   -0.88000     4.065e-09   -1.316e-08    3.496e-08   -4.065e-09  
   -0.87000     3.940e-09   -1.282e-08    3.489e-08   -3.940e-09  
   -0.86000     3.819e-09   -1.249e-08    3.375e-08   -3.819e-09  
   -0.85000     3.700e-09   -1.217e-08    3.297e-08   -3.700e-09  
   -0.84000     3.585e-09   -1.185e-08    3.261e-08   -3.585e-09  
   -0.83000     3.472e-09   -1.154e-08    3.169e-08   -3.472e-09  
   -0.82000     3.363e-09   -1.123e-08    3.119e-08   -3.363e-09  
   -0.81000     3.257e-09   -1.093e-08    3.055e-08   -3.257e-09  
   -0.80000     3.153e-09   -1.064e-08    2.970e-08   -3.153e-09  
   -0.79000     3.052e-09   -1.036e-08    2.927e-08   -3.052e-09  
   -0.78000     2.954e-09   -1.008e-08    2.842e-08   -2.954e-09  
   -0.77000     2.859e-09   -9.803e-09    2.814e-08   -2.859e-09  
   -0.76000     2.766e-09   -9.535e-09    2.721e-08   -2.766e-09  
   -0.75000     2.676e-09   -9.274e-09    2.679e-08   -2.676e-09  
   -0.74000     2.588e-09   -9.019e-09    2.615e-08   -2.588e-09  
   -0.73000     2.503e-09   -8.768e-09    2.551e-08   -2.503e-09  
   -0.72000     2.420e-09   -8.524e-09    2.508e-08   -2.420e-09  
   -0.71000     2.340e-09   -8.285e-09    2.437e-08   -2.340e-09  
   -0.70000     2.262e-09   -8.050e-09    2.395e-08   -2.262e-09  
   -0.69000     2.186e-09   -7.824e-09    2.345e-08   -2.186e-09  
   -0.68000     2.112e-09   -7.600e-09    2.260e-08   -2.112e-09  
   -0.67000     2.040e-09   -7.382e-09    2.245e-08   -2.040e-09  
   -0.66000     1.970e-09   -7.170e-09    2.181e-08   -1.970e-09  
   -0.65000     1.903e-09   -6.963e-09    2.117e-08   -1.903e-09  
   -0.64000     1.837e-09   -6.759e-09    2.068e-08   -1.837e-09  
   -0.63000     1.774e-09   -6.560e-09    2.039e-08   -1.774e-09  
   -0.62000     1.712e-09   -6.367e-09    1.990e-08   -1.712e-09  
   -0.61000     1.652e-09   -6.179e-09    1.933e-08   -1.652e-09  
   -0.60000     1.594e-09   -5.995e-09    1.883e-08   -1.594e-09  
   -0.59000     1.537e-09   -5.817e-09    1.840e-08   -1.537e-09  
   -0.58000     1.483e-09   -5.640e-09    1.783e-08   -1.483e-09  
   -0.57000     1.430e-09   -5.469e-09    1.769e-08   -1.430e-09  
   -0.56000     1.378e-09   -5.302e-09    1.705e-08   -1.378e-09  
   -0.55000     1.328e-09   -5.139e-09    1.670e-08   -1.328e-09  
   -0.54000     1.280e-09   -4.981e-09    1.627e-08   -1.280e-09  
   -0.53000     1.233e-09   -4.827e-09    1.585e-08   -1.233e-09  
   -0.52000     1.188e-09   -4.676e-09    1.542e-08   -1.188e-09  
   -0.51000     1.144e-09   -4.530e-09    1.506e-08   -1.144e-09  
   -0.50000     1.102e-09   -4.387e-09    1.464e-08   -1.102e-09  
   -0.49000     1.061e-09   -4.248e-09    1.428e-08   -1.061e-09  
   -0.48000     1.021e-09   -4.113e-09    1.393e-08   -1.021e-09  
   -0.47000     9.822e-10   -3.979e-09    1.350e-08   -9.822e-10  
   -0.46000     9.450e-10   -3.851e-09    1.336e-08   -9.450e-10  
   -0.45000     9.089e-10   -3.725e-09    1.279e-08   -9.089e-10  
   -0.44000     8.741e-10   -3.605e-09    1.258e-08   -8.741e-10  
   -0.43000     8.404e-10   -3.485e-09    1.208e-08   -8.404e-10  
   -0.42000     8.078e-10   -3.371e-09    1.194e-08   -8.078e-10  
   -0.41000     7.763e-10   -3.258e-09    1.144e-08   -7.763e-10  
   -0.40000     7.459e-10   -3.148e-09    1.130e-08   -7.459e-10  
   -0.39000     7.165e-10   -3.044e-09    1.101e-08   -7.165e-10  
   -0.38000     6.881e-10   -2.938e-09    1.037e-08   -6.881e-10  
   -0.37000     6.607e-10   -2.840e-09    1.059e-08   -6.607e-10  
   -0.36000     6.342e-10   -2.740e-09    9.805e-09   -6.342e-10  
   -0.35000     6.087e-10   -2.646e-09    1.002e-08   -6.087e-10  
   -0.34000     5.841e-10   -2.552e-09    9.379e-09   -5.841e-10  
   -0.33000     5.603e-10   -2.462e-09    9.379e-09   -5.603e-10  
   -0.32000     5.375e-10   -2.374e-09    9.024e-09   -5.375e-10  
   -0.31000     5.154e-10   -2.287e-09    8.811e-09   -5.154e-10  
   -0.30000     4.942e-10   -2.203e-09    8.669e-09   -4.942e-10  
   -0.29000     4.739e-10   -2.120e-09    8.384e-09   -4.739e-10  
   -0.28000     4.543e-10   -2.036e-09    8.384e-09   -4.543e-10  
   -0.27000     4.356e-10   -1.953e-09    8.384e-09   -4.356e-10  
   -0.26000     4.178e-10   -1.872e-09    8.242e-09   -4.178e-10  
   -0.25000     4.008e-10   -1.786e-09    8.171e-09   -4.008e-10  
   -0.24000     3.847e-10   -1.697e-09    8.527e-09   -3.847e-10  
   -0.23000     3.697e-10   -1.607e-09    8.953e-09   -3.697e-10  
   -0.22000     3.558e-10   -1.504e-09    9.024e-09   -3.558e-10  
   -0.21000     3.431e-10   -1.394e-09    1.030e-08   -3.431e-10  
   -0.20000     3.320e-10   -1.263e-09    1.094e-08   -3.320e-10  
   -0.19000     3.227e-10   -1.114e-09    1.307e-08   -3.227e-10  
   -0.18000     3.156e-10   -9.308e-10    1.492e-08   -3.156e-10  
   -0.17000     3.115e-10   -7.049e-10    1.833e-08   -3.115e-10  
   -0.16000     3.110e-10   -4.171e-10    2.260e-08   -3.110e-10  
   -0.15000     3.154e-10   -4.761e-11    2.878e-08   -3.154e-10  
   -0.14000     3.261e-10    4.377e-10    3.695e-08   -3.261e-10  
   -0.13000     3.455e-10    1.078e-09    4.853e-08   -3.455e-10  
   -0.12000     3.762e-10    1.933e-09    6.402e-08   -3.762e-10  
   -0.11000     4.225e-10    3.078e-09    8.548e-08   -4.225e-10  
   -0.10000     4.897e-10    4.626e-09    1.145e-07   -4.897e-10  
 -9.0000e-02    5.853e-10    6.720e-09    1.548e-07   -5.853e-10  
 -8.0000e-02    7.195e-10    9.559e-09    2.093e-07   -7.195e-10  
 -7.0000e-02    9.061e-10    1.342e-08    2.839e-07   -9.061e-10  
 -6.0000e-02    1.164e-09    1.867e-08    3.858e-07   -1.164e-09  
 -5.0000e-02    1.520e-09    2.581e-08    5.249e-07   -1.520e-09  
 -4.0000e-02    2.008e-09    3.555e-08    7.149e-07   -2.008e-09  
 -3.0000e-02    2.677e-09    4.883e-08    9.740e-07   -2.677e-09  
 -2.0000e-02    3.593e-09    6.692e-08    1.327e-06   -3.593e-09  
 -1.0000e-02    4.844e-09    9.155e-08    1.809e-06   -4.844e-09  
    0.          6.551e-09    1.251e-07    2.464e-06   -6.551e-09  
  1.0000e-02    8.877e-09    1.707e-07    3.354e-06   -8.877e-09  
  2.0000e-02    1.204e-08    2.326e-07    4.560e-06   -1.204e-08  
  3.0000e-02    1.634e-08    3.164e-07    6.190e-06   -1.634e-08  
  4.0000e-02    2.215e-08    4.295e-07    8.382e-06   -2.215e-08  
  5.0000e-02    2.999e-08    5.815e-07    1.131e-05   -2.999e-08  
  6.0000e-02    4.052e-08    7.843e-07    1.519e-05   -4.052e-08  
  7.0000e-02    5.458e-08    1.053e-06    2.029e-05   -5.458e-08  
  8.0000e-02    7.318e-08    1.405e-06    2.687e-05   -7.318e-08  
  9.0000e-02    9.758e-08    1.861e-06    3.521e-05   -9.758e-08  
    0.10000     1.292e-07    2.440e-06    4.555e-05   -1.292e-07  
    0.11000     1.697e-07    3.163e-06    5.796e-05   -1.697e-07  
    0.12000     2.206e-07    4.045e-06    7.231e-05   -2.206e-07  
    0.13000     2.836e-07    5.093e-06    8.818e-05   -2.836e-07  
    0.14000     3.602e-07    6.303e-06    1.048e-04   -3.602e-07  
    0.15000     4.516e-07    7.660e-06    1.210e-04   -4.516e-07  
    0.16000     5.585e-07    9.136e-06    1.357e-04   -5.585e-07  
    0.17000     6.814e-07    1.069e-05    1.475e-04   -6.814e-07  
    0.18000     8.201e-07    1.228e-05    1.556e-04   -8.201e-07  
    0.19000     9.742e-07    1.387e-05    1.593e-04   -9.742e-07  
    0.20000     1.143e-06    1.542e-05    1.588e-04   -1.143e-06  
    0.21000     1.326e-06    1.688e-05    1.544e-04   -1.326e-06  
    0.22000     1.521e-06    1.826e-05    1.469e-04   -1.521e-06  
    0.23000     1.727e-06    1.952e-05    1.372e-04   -1.727e-06  
    0.24000     1.944e-06    2.066e-05    1.261e-04   -1.944e-06  
    0.25000     2.170e-06    2.169e-05    1.145e-04   -2.170e-06  
    0.26000     2.404e-06    2.260e-05    1.027e-04   -2.404e-06  
    0.27000     2.645e-06    2.340e-05    9.123e-05   -2.645e-06  
    0.28000     2.893e-06    2.411e-05    8.035e-05   -2.893e-06  
    0.29000     3.145e-06    2.472e-05    7.021e-05   -3.145e-06  
    0.30000     3.402e-06    2.524e-05    6.089e-05   -3.402e-06  
    0.31000     3.663e-06    2.569e-05    5.239e-05   -3.663e-06  
    0.32000     3.926e-06    2.606e-05    4.467e-05   -3.926e-06  
    0.33000     4.193e-06    2.638e-05    3.767e-05   -4.193e-06  
    0.34000     4.461e-06    2.663e-05    3.132e-05   -4.461e-06  
    0.35000     4.731e-06    2.684e-05    2.557e-05   -4.731e-06  
    0.36000     5.002e-06    2.699e-05    2.035e-05   -5.002e-06  
    0.37000     5.274e-06    2.710e-05    1.560e-05   -5.274e-06  
    0.38000     5.546e-06    2.718e-05    1.129e-05   -5.546e-06  
    0.39000     5.818e-06    2.722e-05    7.345e-06   -5.818e-06  
    0.40000     6.090e-06    2.722e-05    3.747e-06   -6.090e-06  
    0.41000     6.361e-06    2.719e-05    4.537e-07   -6.361e-06  
    0.42000     6.632e-06    2.714e-05   -2.563e-06   -6.632e-06  
    0.43000     6.902e-06    2.706e-05   -5.332e-06   -6.902e-06  
    0.44000     7.170e-06    2.696e-05   -7.876e-06   -7.170e-06  
    0.45000     7.437e-06    2.684e-05   -1.022e-05   -7.437e-06  
    0.46000     7.702e-06    2.669e-05   -1.237e-05   -7.702e-06  
    0.47000     7.966e-06    2.653e-05   -1.435e-05   -7.966e-06  
    0.48000     8.227e-06    2.635e-05   -1.618e-05   -8.227e-06  
    0.49000     8.487e-06    2.616e-05   -1.786e-05   -8.487e-06  
    0.50000     8.744e-06    2.595e-05   -1.942e-05   -8.744e-06  
    0.51000     8.999e-06    2.573e-05   -2.085e-05   -8.999e-06  
    0.52000     9.252e-06    2.549e-05   -2.217e-05   -9.252e-06  
    0.53000     9.501e-06    2.525e-05   -2.338e-05   -9.501e-06  
    0.54000     9.749e-06    2.499e-05   -2.450e-05   -9.749e-06  
    0.55000     9.993e-06    2.473e-05   -2.552e-05   -9.993e-06  
    0.56000     1.024e-05    2.446e-05   -2.646e-05   -1.024e-05  
    0.57000     1.047e-05    2.418e-05   -2.732e-05   -1.047e-05  
    0.58000     1.071e-05    2.389e-05   -2.810e-05   -1.071e-05  
    0.59000     1.094e-05    2.359e-05   -2.882e-05   -1.094e-05  
    0.60000     1.117e-05    2.329e-05   -2.947e-05   -1.117e-05  
    0.61000     1.140e-05    2.299e-05   -3.005e-05   -1.140e-05  
    0.62000     1.162e-05    2.268e-05   -3.058e-05   -1.162e-05  
    0.63000     1.184e-05    2.236e-05   -3.105e-05   -1.184e-05  
    0.64000     1.206e-05    2.204e-05   -3.147e-05   -1.206e-05  
    0.65000     1.227e-05    2.172e-05   -3.184e-05   -1.227e-05  
    0.66000     1.249e-05    2.140e-05   -3.217e-05   -1.249e-05  
    0.67000     1.269e-05    2.107e-05   -3.244e-05   -1.269e-05  
    0.68000     1.290e-05    2.074e-05   -3.268e-05   -1.290e-05  
    0.69000     1.310e-05    2.041e-05   -3.288e-05   -1.310e-05  
    0.70000     1.330e-05    2.008e-05   -3.304e-05   -1.330e-05  
    0.71000     1.349e-05    1.975e-05   -3.316e-05   -1.349e-05  
    0.72000     1.368e-05    1.941e-05   -3.325e-05   -1.368e-05  
    0.73000     1.387e-05    1.908e-05   -3.331e-05   -1.387e-05  
    0.74000     1.405e-05    1.875e-05   -3.334e-05   -1.405e-05  
    0.75000     1.423e-05    1.841e-05   -3.334e-05   -1.423e-05  
    0.76000     1.441e-05    1.808e-05   -3.332e-05   -1.441e-05  
    0.77000     1.458e-05    1.775e-05   -3.326e-05   -1.458e-05  
    0.78000     1.475e-05    1.742e-05   -3.319e-05   -1.475e-05  
    0.79000     1.492e-05    1.709e-05   -3.309e-05   -1.492e-05  
    0.80000     1.509e-05    1.676e-05   -3.297e-05   -1.509e-05  
    0.81000     1.525e-05    1.643e-05   -3.283e-05   -1.525e-05  
    0.82000     1.541e-05    1.611e-05   -3.267e-05   -1.541e-05  
    0.83000     1.556e-05    1.578e-05   -3.250e-05   -1.556e-05  
    0.84000     1.571e-05    1.546e-05   -3.230e-05   -1.571e-05  
    0.85000     1.586e-05    1.515e-05   -3.209e-05   -1.586e-05  
    0.86000     1.601e-05    1.483e-05   -3.187e-05   -1.601e-05  
    0.87000     1.615e-05    1.452e-05   -3.163e-05   -1.615e-05  
    0.88000     1.629e-05    1.420e-05   -3.138e-05   -1.629e-05  
    0.89000     1.642e-05    1.390e-05   -3.112e-05   -1.642e-05  
    0.90000     1.656e-05    1.359e-05   -3.085e-05   -1.656e-05  
    0.91000     1.668e-05    1.329e-05   -3.057e-05   -1.668e-05  
    0.92000     1.681e-05    1.299e-05   -3.028e-05   -1.681e-05  
    0.93000     1.694e-05    1.269e-05   -2.998e-05   -1.694e-05  
    0.94000     1.706e-05    1.240e-05   -2.967e-05   -1.706e-05  
    0.95000     1.718e-05    1.211e-05   -2.935e-05   -1.718e-05  
    0.96000     1.729e-05    1.182e-05   -2.903e-05   -1.729e-05  
    0.97000     1.740e-05    1.154e-05   -2.870e-05   -1.740e-05  
    0.98000     1.751e-05    1.126e-05   -2.837e-05   -1.751e-05  
    0.99000     1.762e-05    1.098e-05   -2.803e-05   -1.762e-05  
    1.00000     1.772e-05    1.071e-05   -2.769e-05   -1.772e-05  
    1.01000     1.783e-05    1.044e-05   -2.734e-05   -1.783e-05  
    1.02000     1.792e-05    1.017e-05   -2.699e-05   -1.792e-05  
    1.03000     1.802e-05    9.906e-06   -2.664e-05   -1.802e-05  
    1.04000     1.812e-05    9.647e-06   -2.628e-05   -1.812e-05  
    1.05000     1.821e-05    9.391e-06   -2.593e-05   -1.821e-05  
    1.06000     1.830e-05    9.139e-06   -2.557e-05   -1.830e-05  
    1.07000     1.838e-05    8.890e-06   -2.521e-05   -1.838e-05  
    1.08000     1.847e-05    8.646e-06   -2.485e-05   -1.847e-05  
    1.09000     1.855e-05    8.404e-06   -2.449e-05   -1.855e-05  
    1.10000     1.863e-05    8.167e-06   -2.413e-05   -1.863e-05  
    1.11000     1.870e-05    7.933e-06   -2.377e-05   -1.870e-05  
    1.12000     1.878e-05    7.702e-06   -2.341e-05   -1.878e-05  
    1.13000     1.885e-05    7.475e-06   -2.305e-05   -1.885e-05  
    1.14000     1.892e-05    7.252e-06   -2.269e-05   -1.892e-05  
    1.15000     1.899e-05    7.032e-06   -2.233e-05   -1.899e-05  
    1.16000     1.906e-05    6.816e-06   -2.197e-05   -1.906e-05  
    1.17000     1.912e-05    6.603e-06   -2.162e-05   -1.912e-05  
    1.18000     1.918e-05    6.394e-06   -2.127e-05   -1.918e-05  
    1.19000     1.924e-05    6.189e-06   -2.092e-05   -1.924e-05  
    1.20000     1.930e-05    5.986e-06   -2.057e-05   -1.930e-05  
    1.21000     1.936e-05    5.788e-06   -2.022e-05   -1.936e-05  
    1.22000     1.941e-05    5.592e-06   -1.988e-05   -1.941e-05  
    1.23000     1.946e-05    5.400e-06   -1.954e-05   -1.946e-05  
    1.24000     1.951e-05    5.212e-06   -1.920e-05   -1.951e-05  
    1.25000     1.956e-05    5.026e-06   -1.886e-05   -1.956e-05  
    1.26000     1.961e-05    4.844e-06   -1.853e-05   -1.961e-05  
    1.27000     1.965e-05    4.666e-06   -1.820e-05   -1.965e-05  
    1.28000     1.969e-05    4.490e-06   -1.788e-05   -1.969e-05  
    1.29000     1.974e-05    4.318e-06   -1.756e-05   -1.974e-05  
    1.30000     1.978e-05    4.148e-06   -1.724e-05   -1.978e-05  
y
-----------------------------------------------

          ***** job concluded
1****** HSPICE -- G-2012.06 32-BIT (May 27 2012) RHEL32 ******                  
 ******  
 *sample netlist for bsim6

  ******  job statistics summary tnom=  25.000 temp=  25.000 *****
  
  
 ******  Machine Information  ******
 CPU:
 model name	: Intel(R) Xeon(R) CPU           E5645  @ 2.40GHz
 cpu MHz	: 2394.056
  
 OS:
 Linux version 2.6.32-504.3.3.el6.x86_64 (mockbuild@x86-028.build.eng.bos.redhat.com) (gcc version 4.4.7 20120313 (Red Hat 4.4.7-9) (GCC) ) #1 SMP Fri Dec 12 16:05:43 EST 2014


  ******  HSPICE Threads Information  ******

  Command Line Threads Count :     1
  Available CPU Count        :    12
  Actual Threads Count       :     1


  ******  Circuit Statistics  ******
  # nodes       =      17 # elements   =       5
  # resistors   =       0 # capacitors =       0 # inductors   =       0
  # mutual_inds =       0 # vccs       =       0 # vcvs        =       0
  # cccs        =       0 # ccvs       =       0 # volt_srcs   =       4
  # curr_srcs   =       0 # diodes     =       0 # bjts        =       0
  # jfets       =       0 # mosfets    =       0 # U elements  =       0
  # T elements  =       0 # W elements =       0 # B elements  =       0
  # S elements  =       0 # P elements =       0 # va device   =       1
  # vector_srcs =       0 # N elements =       0


  ******  Runtime Statistics (seconds)  ******

  analysis           time    # points   tot. iter  conv.iter
  op point           0.00           1           0
  dc sweep           0.17        1044        2096
  readin             2.43
  errchk             0.04
  setup              0.00
  output             0.00


           peak memory used        117.28 megabytes
           total cpu time            2.64 seconds
           total elapsed time        9.93 seconds
           job started at     10:13:58 07/28/2015
           job ended   at     10:14:08 07/28/2015


 lic: Release hspice token(s) 
 lic: total license checkout elapse time:        0.56(s)
