 ****** HSPICE -- G-2012.06 32-BIT (May 27 2012) RHEL32 ******                  
  Copyright (C) 2012 Synopsys, Inc. All Rights Reserved.                        
  Unpublished-rights reserved under US copyright laws.
  This program is protected by law and is subject to the
  terms and conditions of the license agreement from Synopsys.
  Use of this program is your acceptance to be bound by the
  license agreement. HSPICE is the trademark of Synopsys, Inc.
  Input File: ringosc_17.sp                                                     
  Command line options: -hdlpath ../code -i ringosc_17.sp -o ringosc_17
 lic:  
 lic: FLEXlm: v10.8 
 lic: USER:   sourabh              HOSTNAME: bwrcrdsl-3.eecs.berkeley.edu 
 lic: HOSTID:                      PID:      24249 
 lic: Using FLEXlm license file: 
 lic: 1701@sunv40z-1.eecs.berkeley.edu 
 lic: Checkout 1 hspice 
 lic: License/Maintenance for hspice will expire on 19-dec-2015/2014.09 
 lic: 1(in_use)/50(total) FLOATING license(s) on SERVER sunv40z-1.eecs.berkeley.
 lic:   
 Init: read install configuration file: /tools/synopsys/hspice/G-2012.06/hspice/meta.cfg
 **info** *pvaI* Module (bsim6): 4 unexpanded port, 0 init, 2615 behav, 63 contrib, 58/2705 expr(s)

 **info** *pvaI* Resizing DB size for v count = 1

 **info** *pvaI*        Has DIS (DT ST SB), 3 afCount

 **info** *pvaI*        0 const-G and 0 const-C, Has switch branch.

 **info** *pvaI* Module (bsim6): generated 7 flow node(s) during compilation.

 **info** *pvaI* #### Total 519 line-size(s), 58 expr(s), 63 contr(s), 0 init(s), 2615 behav(s), 4 port(s)

  **warning** (ringosc_17.sp:14) Global net name, "gnd", in subckt pin list. The pin will be connected to the local net. Recommend to not use global net names in subckt pin lists.
 Loading pVA library ringosc_17.pvadir/pvaRTL_linux.so...
1****** HSPICE -- G-2012.06 32-BIT (May 27 2012) RHEL32 ******                  
 ******  
 *sample netlist for bsim6

  ******  circuit name directory
 circuit number to circuit name directory
   number circuitname                     definition         multiplier
        0 main circuit
        1 xinv1.                          inverter           1.00 
        2 xinv2.                          inverter           1.00 
        3 xinv3.                          inverter           1.00 
        4 xinv4.                          inverter           1.00 
        5 xinv5.                          inverter           1.00 
        6 xinv6.                          inverter           1.00 
        7 xinv7.                          inverter           1.00 
        8 xinv8.                          inverter           1.00 
        9 xinv9.                          inverter           1.00 
       10 xinv10.                         inverter           1.00 
       11 xinv11.                         inverter           1.00 
       12 xinv12.                         inverter           1.00 
       13 xinv13.                         inverter           1.00 
       14 xinv14.                         inverter           1.00 
       15 xinv15.                         inverter           1.00 
       16 xinv16.                         inverter           1.00 
       17 xinv17.                         inverter           1.00 
       18 xinv1.xp1.                      bsim6(va)          1.00 
       19 xinv1.xn1.                      bsim6(va)          1.00 
       20 xinv2.xp1.                      bsim6(va)          1.00 
       21 xinv2.xn1.                      bsim6(va)          1.00 
       22 xinv3.xp1.                      bsim6(va)          1.00 
       23 xinv3.xn1.                      bsim6(va)          1.00 
       24 xinv4.xp1.                      bsim6(va)          1.00 
       25 xinv4.xn1.                      bsim6(va)          1.00 
       26 xinv5.xp1.                      bsim6(va)          1.00 
       27 xinv5.xn1.                      bsim6(va)          1.00 
       28 xinv6.xp1.                      bsim6(va)          1.00 
       29 xinv6.xn1.                      bsim6(va)          1.00 
       30 xinv7.xp1.                      bsim6(va)          1.00 
       31 xinv7.xn1.                      bsim6(va)          1.00 
       32 xinv8.xp1.                      bsim6(va)          1.00 
       33 xinv8.xn1.                      bsim6(va)          1.00 
       34 xinv9.xp1.                      bsim6(va)          1.00 
       35 xinv9.xn1.                      bsim6(va)          1.00 
       36 xinv10.xp1.                     bsim6(va)          1.00 
       37 xinv10.xn1.                     bsim6(va)          1.00 
       38 xinv11.xp1.                     bsim6(va)          1.00 
       39 xinv11.xn1.                     bsim6(va)          1.00 
       40 xinv12.xp1.                     bsim6(va)          1.00 
       41 xinv12.xn1.                     bsim6(va)          1.00 
       42 xinv13.xp1.                     bsim6(va)          1.00 
       43 xinv13.xn1.                     bsim6(va)          1.00 
       44 xinv14.xp1.                     bsim6(va)          1.00 
       45 xinv14.xn1.                     bsim6(va)          1.00 
       46 xinv15.xp1.                     bsim6(va)          1.00 
       47 xinv15.xn1.                     bsim6(va)          1.00 
       48 xinv16.xp1.                     bsim6(va)          1.00 
       49 xinv16.xn1.                     bsim6(va)          1.00 
       50 xinv17.xp1.                     bsim6(va)          1.00 
       51 xinv17.xn1.                     bsim6(va)          1.00 
 **info** *pvaI* Creating Verilog-A module 'bsim6' for XINV17.XN1

 **info** *pvaI* Creating Verilog-A module 'bsim6' for XINV17.XP1

  
      
 *****************************************************************
 ******  option summary
 ******
 runlvl  = 3         bypass  = 2         
  Opening plot unit= 15
 file=ringosc_17.pa0                                                           

1****** HSPICE -- G-2012.06 32-BIT (May 27 2012) RHEL32 ******                  
 ******  
 *sample netlist for bsim6

  ******  operating point information tnom=  25.000 temp=  25.000 *****
 ***** operating point status is voltage   simulation time is     0.     
     node    =voltage       node    =voltage       node    =voltage

 + 0:1       =   1.0000   0:2       = 7.904e-03  0:3       =   0.9998 
 + 0:4       = 7.913e-03  0:5       =   0.9998   0:6       = 7.913e-03
 + 0:7       =   0.9998   0:8       = 7.913e-03  0:9       =   0.9998 
 + 0:10      = 7.913e-03  0:11      =   0.9998   0:12      = 7.913e-03
 + 0:13      =   0.9998   0:14      = 7.913e-03  0:15      =   0.9998 
 + 0:16      = 7.913e-03  0:17      =   0.9998   0:supply  =   1.0000 

 ******  
 *sample netlist for bsim6

  ******  transient analysis tnom=  25.000 temp=  25.000 *****
x

        time    voltage    
                     1     
    0.            1.0000   
  1.0000e-09      0.9350   
  2.0000e-09      0.8682   
  3.0000e-09      0.8009   
  4.0000e-09      0.7372   
  5.0000e-09      0.6799   
  6.0000e-09      0.6227   
  7.0000e-09      0.5655   
  8.0000e-09      0.5107   
  9.0000e-09      0.4705   
  1.0000e-08      0.4303   
  1.1000e-08      0.3901   
  1.2000e-08      0.3499   
  1.3000e-08      0.3213   
  1.4000e-08      0.2983   
  1.5000e-08      0.2752   
  1.6000e-08      0.2521   
  1.7000e-08      0.2290   
  1.8000e-08      0.2060   
  1.9000e-08      0.1829   
  2.0000e-08      0.1599   
  2.1000e-08      0.1463   
  2.2000e-08      0.1327   
  2.3000e-08      0.1191   
  2.4000e-08      0.1055   
  2.5000e-08    9.190e-02  
  2.6000e-08    7.831e-02  
  2.7000e-08    6.472e-02  
  2.8000e-08    5.171e-02  
  2.9000e-08    5.026e-02  
  3.0000e-08    4.881e-02  
  3.1000e-08    4.736e-02  
  3.2000e-08    4.592e-02  
  3.3000e-08    4.447e-02  
  3.4000e-08    4.302e-02  
  3.5000e-08    4.157e-02  
  3.6000e-08    4.070e-02  
  3.7000e-08    4.054e-02  
  3.8000e-08    4.038e-02  
  3.9000e-08    4.023e-02  
  4.0000e-08    4.007e-02  
  4.1000e-08    3.992e-02  
  4.2000e-08    3.976e-02  
  4.3000e-08    3.952e-02  
  4.4000e-08    3.894e-02  
  4.5000e-08    3.836e-02  
  4.6000e-08    3.778e-02  
  4.7000e-08    3.720e-02  
  4.8000e-08    3.662e-02  
  4.9000e-08    3.604e-02  
  5.0000e-08    3.546e-02  
  5.1000e-08    3.489e-02  
  5.2000e-08    3.438e-02  
  5.3000e-08    3.391e-02  
  5.4000e-08    3.343e-02  
  5.5000e-08    3.296e-02  
  5.6000e-08    3.249e-02  
  5.7000e-08    3.201e-02  
  5.8000e-08    3.154e-02  
  5.9000e-08    3.107e-02  
  6.0000e-08    3.060e-02  
  6.1000e-08    3.012e-02  
  6.2000e-08    2.965e-02  
  6.3000e-08    2.918e-02  
  6.4000e-08    2.870e-02  
  6.5000e-08    2.823e-02  
  6.6000e-08    2.776e-02  
  6.7000e-08    2.696e-02  
  6.8000e-08    2.596e-02  
  6.9000e-08    2.495e-02  
  7.0000e-08    2.395e-02  
  7.1000e-08    2.294e-02  
  7.2000e-08    2.193e-02  
  7.3000e-08    2.093e-02  
  7.4000e-08    1.992e-02  
  7.5000e-08    1.892e-02  
  7.6000e-08    1.791e-02  
  7.7000e-08    1.691e-02  
  7.8000e-08    1.590e-02  
  7.9000e-08    1.524e-02  
  8.0000e-08    1.514e-02  
  8.1000e-08    1.504e-02  
  8.2000e-08    1.494e-02  
  8.3000e-08    1.484e-02  
  8.4000e-08    1.474e-02  
  8.5000e-08    1.464e-02  
  8.6000e-08    1.454e-02  
  8.7000e-08    1.444e-02  
  8.8000e-08    1.451e-02  
  8.9000e-08    1.467e-02  
  9.0000e-08    1.483e-02  
  9.1000e-08    1.500e-02  
  9.2000e-08    1.516e-02  
  9.3000e-08    1.532e-02  
  9.4000e-08    1.549e-02  
  9.5000e-08    1.565e-02  
  9.6000e-08    1.581e-02  
  9.7000e-08    1.598e-02  
  9.8000e-08    1.614e-02  
  9.9000e-08    1.630e-02  
  1.0000e-07    1.644e-02  
  1.0100e-07    1.611e-02  
  1.0200e-07    1.579e-02  
  1.0300e-07    1.546e-02  
  1.0400e-07    1.513e-02  
  1.0500e-07    1.481e-02  
  1.0600e-07    1.448e-02  
  1.0700e-07    1.416e-02  
  1.0800e-07    1.386e-02  
  1.0900e-07    1.360e-02  
  1.1000e-07    1.335e-02  
  1.1100e-07    1.311e-02  
  1.1200e-07    1.289e-02  
  1.1300e-07    1.266e-02  
  1.1400e-07    1.246e-02  
  1.1500e-07    1.230e-02  
  1.1600e-07    1.213e-02  
  1.1700e-07    1.197e-02  
  1.1800e-07    1.181e-02  
  1.1900e-07    1.165e-02  
  1.2000e-07    1.149e-02  
  1.2100e-07    1.132e-02  
  1.2200e-07    1.116e-02  
  1.2300e-07    1.100e-02  
  1.2400e-07    1.084e-02  
  1.2500e-07    1.071e-02  
  1.2600e-07    1.057e-02  
  1.2700e-07    1.043e-02  
  1.2800e-07    1.029e-02  
  1.2900e-07    1.015e-02  
  1.3000e-07    1.002e-02  
  1.3100e-07    9.879e-03  
  1.3200e-07    9.741e-03  
  1.3300e-07    9.655e-03  
  1.3400e-07    9.614e-03  
  1.3500e-07    9.573e-03  
  1.3600e-07    9.532e-03  
  1.3700e-07    9.492e-03  
  1.3800e-07    9.451e-03  
  1.3900e-07    9.410e-03  
  1.4000e-07    9.369e-03  
  1.4100e-07    9.333e-03  
  1.4200e-07    9.298e-03  
  1.4300e-07    9.264e-03  
  1.4400e-07    9.229e-03  
  1.4500e-07    9.195e-03  
  1.4600e-07    9.160e-03  
  1.4700e-07    9.125e-03  
  1.4800e-07    9.091e-03  
  1.4900e-07    9.056e-03  
  1.5000e-07    9.022e-03  
  1.5100e-07    8.985e-03  
  1.5200e-07    8.948e-03  
  1.5300e-07    8.911e-03  
  1.5400e-07    8.873e-03  
  1.5500e-07    8.836e-03  
  1.5600e-07    8.799e-03  
  1.5700e-07    8.761e-03  
  1.5800e-07    8.724e-03  
  1.5900e-07    8.687e-03  
  1.6000e-07    8.647e-03  
  1.6100e-07    8.606e-03  
  1.6200e-07    8.565e-03  
  1.6300e-07    8.525e-03  
  1.6400e-07    8.484e-03  
  1.6500e-07    8.444e-03  
  1.6600e-07    8.403e-03  
  1.6700e-07    8.362e-03  
  1.6800e-07    8.322e-03  
  1.6900e-07    8.297e-03  
  1.7000e-07    8.287e-03  
  1.7100e-07    8.277e-03  
  1.7200e-07    8.267e-03  
  1.7300e-07    8.258e-03  
  1.7400e-07    8.248e-03  
  1.7500e-07    8.238e-03  
  1.7600e-07    8.229e-03  
  1.7700e-07    8.219e-03  
  1.7800e-07    8.209e-03  
  1.7900e-07    8.201e-03  
  1.8000e-07    8.193e-03  
  1.8100e-07    8.184e-03  
  1.8200e-07    8.176e-03  
  1.8300e-07    8.167e-03  
  1.8400e-07    8.159e-03  
  1.8500e-07    8.151e-03  
  1.8600e-07    8.142e-03  
  1.8700e-07    8.134e-03  
  1.8800e-07    8.126e-03  
  1.8900e-07    8.117e-03  
  1.9000e-07    8.109e-03  
  1.9100e-07    8.100e-03  
  1.9200e-07    8.094e-03  
  1.9300e-07    8.089e-03  
  1.9400e-07    8.084e-03  
  1.9500e-07    8.079e-03  
  1.9600e-07    8.073e-03  
  1.9700e-07    8.068e-03  
  1.9800e-07    8.064e-03  
  1.9900e-07    8.060e-03  
  2.0000e-07    8.056e-03  
  2.0100e-07    8.052e-03  
  2.0200e-07    8.048e-03  
  2.0300e-07    8.044e-03  
  2.0400e-07    8.040e-03  
  2.0500e-07    8.036e-03  
  2.0600e-07    8.032e-03  
  2.0700e-07    8.028e-03  
  2.0800e-07    8.024e-03  
  2.0900e-07    8.021e-03  
  2.1000e-07    8.017e-03  
  2.1100e-07    8.013e-03  
  2.1200e-07    8.009e-03  
  2.1300e-07    8.005e-03  
  2.1400e-07    8.001e-03  
  2.1500e-07    7.997e-03  
  2.1600e-07    7.993e-03  
  2.1700e-07    7.989e-03  
  2.1800e-07    7.985e-03  
  2.1900e-07    7.981e-03  
  2.2000e-07    7.977e-03  
  2.2100e-07    7.973e-03  
  2.2200e-07    7.969e-03  
  2.2300e-07    7.966e-03  
  2.2400e-07    7.965e-03  
  2.2500e-07    7.964e-03  
  2.2600e-07    7.963e-03  
  2.2700e-07    7.962e-03  
  2.2800e-07    7.961e-03  
  2.2900e-07    7.959e-03  
  2.3000e-07    7.958e-03  
  2.3100e-07    7.957e-03  
  2.3200e-07    7.956e-03  
  2.3300e-07    7.955e-03  
  2.3400e-07    7.954e-03  
  2.3500e-07    7.953e-03  
  2.3600e-07    7.952e-03  
  2.3700e-07    7.951e-03  
  2.3800e-07    7.949e-03  
  2.3900e-07    7.948e-03  
  2.4000e-07    7.947e-03  
  2.4100e-07    7.946e-03  
  2.4200e-07    7.945e-03  
  2.4300e-07    7.944e-03  
  2.4400e-07    7.943e-03  
  2.4500e-07    7.941e-03  
  2.4600e-07    7.940e-03  
  2.4700e-07    7.939e-03  
  2.4800e-07    7.938e-03  
  2.4900e-07    7.937e-03  
  2.5000e-07    7.936e-03  
  2.5100e-07    7.935e-03  
  2.5200e-07    7.935e-03  
  2.5300e-07    7.934e-03  
  2.5400e-07    7.933e-03  
  2.5500e-07    7.932e-03  
  2.5600e-07    7.931e-03  
  2.5700e-07    7.931e-03  
  2.5800e-07    7.930e-03  
  2.5900e-07    7.929e-03  
  2.6000e-07    7.928e-03  
  2.6100e-07    7.927e-03  
  2.6200e-07    7.926e-03  
  2.6300e-07    7.926e-03  
  2.6400e-07    7.925e-03  
  2.6500e-07    7.924e-03  
  2.6600e-07    7.923e-03  
  2.6700e-07    7.923e-03  
  2.6800e-07    7.922e-03  
  2.6900e-07    7.921e-03  
  2.7000e-07    7.920e-03  
  2.7100e-07    7.920e-03  
  2.7200e-07    7.920e-03  
  2.7300e-07    7.920e-03  
  2.7400e-07    7.920e-03  
  2.7500e-07    7.921e-03  
  2.7600e-07    7.921e-03  
  2.7700e-07    7.921e-03  
  2.7800e-07    7.921e-03  
  2.7900e-07    7.921e-03  
  2.8000e-07    7.921e-03  
  2.8100e-07    7.921e-03  
  2.8200e-07    7.921e-03  
  2.8300e-07    7.922e-03  
  2.8400e-07    7.922e-03  
  2.8500e-07    7.922e-03  
  2.8600e-07    7.921e-03  
  2.8700e-07    7.921e-03  
  2.8800e-07    7.920e-03  
  2.8900e-07    7.920e-03  
  2.9000e-07    7.919e-03  
  2.9100e-07    7.918e-03  
  2.9200e-07    7.918e-03  
  2.9300e-07    7.917e-03  
  2.9400e-07    7.916e-03  
  2.9500e-07    7.916e-03  
  2.9600e-07    7.915e-03  
  2.9700e-07    7.915e-03  
  2.9800e-07    7.914e-03  
  2.9900e-07    7.914e-03  
  3.0000e-07    7.915e-03  
  3.0100e-07    7.915e-03  
  3.0200e-07    7.916e-03  
  3.0300e-07    7.917e-03  
  3.0400e-07    7.917e-03  
  3.0500e-07    7.918e-03  
  3.0600e-07    7.919e-03  
  3.0700e-07    7.919e-03  
  3.0800e-07    7.919e-03  
  3.0900e-07    7.918e-03  
  3.1000e-07    7.918e-03  
  3.1100e-07    7.918e-03  
  3.1200e-07    7.918e-03  
  3.1300e-07    7.918e-03  
  3.1400e-07    7.918e-03  
  3.1500e-07    7.917e-03  
  3.1600e-07    7.917e-03  
  3.1700e-07    7.916e-03  
  3.1800e-07    7.913e-03  
  3.1900e-07    7.910e-03  
  3.2000e-07    7.907e-03  
  3.2100e-07    7.904e-03  
  3.2200e-07    7.902e-03  
  3.2300e-07    7.899e-03  
  3.2400e-07    7.896e-03  
  3.2500e-07    7.894e-03  
  3.2600e-07    7.893e-03  
  3.2700e-07    7.892e-03  
  3.2800e-07    7.892e-03  
  3.2900e-07    7.891e-03  
  3.3000e-07    7.891e-03  
  3.3100e-07    7.890e-03  
  3.3200e-07    7.889e-03  
  3.3300e-07    7.889e-03  
  3.3400e-07    7.888e-03  
  3.3500e-07    7.888e-03  
  3.3600e-07    7.887e-03  
  3.3700e-07    7.887e-03  
  3.3800e-07    7.889e-03  
  3.3900e-07    7.898e-03  
  3.4000e-07    7.906e-03  
  3.4100e-07    7.915e-03  
  3.4200e-07    7.924e-03  
  3.4300e-07    7.933e-03  
  3.4400e-07    7.941e-03  
  3.4500e-07    7.950e-03  
  3.4600e-07    7.952e-03  
  3.4700e-07    7.951e-03  
  3.4800e-07    7.950e-03  
  3.4900e-07    7.949e-03  
  3.5000e-07    7.948e-03  
  3.5100e-07    7.947e-03  
  3.5200e-07    7.946e-03  
  3.5300e-07    7.945e-03  
  3.5400e-07    7.944e-03  
  3.5500e-07    7.943e-03  
  3.5600e-07    7.944e-03  
  3.5700e-07    7.948e-03  
  3.5800e-07    7.952e-03  
  3.5900e-07    7.955e-03  
  3.6000e-07    7.959e-03  
  3.6100e-07    7.963e-03  
  3.6200e-07    7.967e-03  
  3.6300e-07    7.970e-03  
  3.6400e-07    7.974e-03  
  3.6500e-07    7.978e-03  
  3.6600e-07    7.982e-03  
  3.6700e-07    7.985e-03  
  3.6800e-07    7.989e-03  
  3.6900e-07    7.993e-03  
  3.7000e-07    7.997e-03  
  3.7100e-07    8.004e-03  
  3.7200e-07    8.017e-03  
  3.7300e-07    8.030e-03  
  3.7400e-07    8.046e-03  
  3.7500e-07    8.084e-03  
  3.7600e-07    8.123e-03  
  3.7700e-07    8.139e-03  
  3.7800e-07    8.100e-03  
  3.7900e-07    8.061e-03  
  3.8000e-07    8.021e-03  
  3.8100e-07    7.982e-03  
  3.8200e-07    7.943e-03  
  3.8300e-07    7.903e-03  
  3.8400e-07    7.864e-03  
  3.8500e-07    7.825e-03  
  3.8600e-07    7.764e-03  
  3.8700e-07    7.655e-03  
  3.8800e-07    7.546e-03  
  3.8900e-07    7.438e-03  
  3.9000e-07    7.329e-03  
  3.9100e-07    7.220e-03  
  3.9200e-07    7.111e-03  
  3.9300e-07    7.078e-03  
  3.9400e-07    7.075e-03  
  3.9500e-07    7.072e-03  
  3.9600e-07    7.069e-03  
  3.9700e-07    7.066e-03  
  3.9800e-07    7.063e-03  
  3.9900e-07    7.060e-03  
  4.0000e-07    7.057e-03  
  4.0100e-07    7.054e-03  
  4.0200e-07    7.095e-03  
  4.0300e-07    7.157e-03  
  4.0400e-07    7.220e-03  
  4.0500e-07    7.282e-03  
  4.0600e-07    7.345e-03  
  4.0700e-07    7.407e-03  
  4.0800e-07    7.470e-03  
  4.0900e-07    7.532e-03  
  4.1000e-07    7.600e-03  
  4.1100e-07    7.679e-03  
  4.1200e-07    7.759e-03  
  4.1300e-07    7.838e-03  
  4.1400e-07    7.918e-03  
  4.1500e-07    7.997e-03  
  4.1600e-07    8.077e-03  
  4.1700e-07    8.156e-03  
  4.1800e-07    8.236e-03  
  4.1900e-07    8.315e-03  
  4.2000e-07    8.395e-03  
  4.2100e-07    8.475e-03  
  4.2200e-07    8.554e-03  
  4.2300e-07    8.634e-03  
  4.2400e-07    8.713e-03  
  4.2500e-07    8.793e-03  
  4.2600e-07    8.872e-03  
  4.2700e-07    9.171e-03  
  4.2800e-07    9.785e-03  
  4.2900e-07    1.040e-02  
  4.3000e-07    1.101e-02  
  4.3100e-07    1.163e-02  
  4.3200e-07    1.224e-02  
  4.3300e-07    1.286e-02  
  4.3400e-07    1.347e-02  
  4.3500e-07    1.409e-02  
  4.3600e-07    1.470e-02  
  4.3700e-07    1.532e-02  
  4.3800e-07    1.593e-02  
  4.3900e-07    1.655e-02  
  4.4000e-07    1.686e-02  
  4.4100e-07    1.625e-02  
  4.4200e-07    1.564e-02  
  4.4300e-07    1.503e-02  
  4.4400e-07    1.442e-02  
  4.4500e-07    1.381e-02  
  4.4600e-07    1.320e-02  
  4.4700e-07    1.259e-02  
  4.4800e-07    1.198e-02  
  4.4900e-07    1.093e-02  
  4.5000e-07    8.834e-03  
  4.5100e-07    6.735e-03  
  4.5200e-07    4.635e-03  
  4.5300e-07    2.536e-03  
  4.5400e-07    4.371e-04  
  4.5500e-07   -1.662e-03  
  4.5600e-07   -3.761e-03  
  4.5700e-07   -5.860e-03  
  4.5800e-07   -7.960e-03  
  4.5900e-07   -1.006e-02  
  4.6000e-07   -1.216e-02  
  4.6100e-07   -1.429e-02  
  4.6200e-07   -1.647e-02  
  4.6300e-07   -1.865e-02  
  4.6400e-07   -2.084e-02  
  4.6500e-07   -2.302e-02  
  4.6600e-07   -2.521e-02  
  4.6700e-07   -2.739e-02  
  4.6800e-07   -2.957e-02  
  4.6900e-07   -3.176e-02  
  4.7000e-07   -3.395e-02  
  4.7100e-07   -3.628e-02  
  4.7200e-07   -3.861e-02  
  4.7300e-07   -4.128e-02  
  4.7400e-07   -4.444e-02  
  4.7500e-07   -4.760e-02  
  4.7600e-07   -4.837e-02  
  4.7700e-07   -4.814e-02  
  4.7800e-07   -4.792e-02  
  4.7900e-07   -4.769e-02  
  4.8000e-07   -4.747e-02  
  4.8100e-07   -4.724e-02  
  4.8200e-07   -4.701e-02  
  4.8300e-07   -4.679e-02  
  4.8400e-07   -4.611e-02  
  4.8500e-07   -3.628e-02  
  4.8600e-07   -2.646e-02  
  4.8700e-07   -1.663e-02  
  4.8800e-07   -6.805e-03  
  4.8900e-07    3.022e-03  
  4.9000e-07    1.285e-02  
  4.9100e-07    2.268e-02  
  4.9200e-07    4.017e-02  
  4.9300e-07    6.396e-02  
  4.9400e-07    8.774e-02  
  4.9500e-07      0.1115   
  4.9600e-07      0.1353   
  4.9700e-07      0.1591   
  4.9800e-07      0.1829   
  4.9900e-07      0.2067   
  5.0000e-07      0.2302   
  5.0100e-07      0.2519   
  5.0200e-07      0.2736   
  5.0300e-07      0.2953   
  5.0400e-07      0.3170   
  5.0500e-07      0.3387   
  5.0600e-07      0.3604   
  5.0700e-07      0.3821   
  5.0800e-07      0.4038   
  5.0900e-07      0.4255   
  5.1000e-07      0.4471   
  5.1100e-07      0.4688   
  5.1200e-07      0.4867   
  5.1300e-07      0.5031   
  5.1400e-07      0.5195   
  5.1500e-07      0.5359   
  5.1600e-07      0.5523   
  5.1700e-07      0.5687   
  5.1800e-07      0.5851   
  5.1900e-07      0.5988   
  5.2000e-07      0.6102   
  5.2100e-07      0.6216   
  5.2200e-07      0.6331   
  5.2300e-07      0.6445   
  5.2400e-07      0.6559   
  5.2500e-07      0.6673   
  5.2600e-07      0.6788   
  5.2700e-07      0.6902   
  5.2800e-07      0.7016   
  5.2900e-07      0.7130   
  5.3000e-07      0.7231   
  5.3100e-07      0.7319   
  5.3200e-07      0.7407   
  5.3300e-07      0.7495   
  5.3400e-07      0.7583   
  5.3500e-07      0.7671   
  5.3600e-07      0.7759   
  5.3700e-07      0.7847   
  5.3800e-07      0.7935   
  5.3900e-07      0.8023   
  5.4000e-07      0.8111   
  5.4100e-07      0.8199   
  5.4200e-07      0.8236   
  5.4300e-07      0.8264   
  5.4400e-07      0.8292   
  5.4500e-07      0.8320   
  5.4600e-07      0.8348   
  5.4700e-07      0.8375   
  5.4800e-07      0.8403   
  5.4900e-07      0.8431   
  5.5000e-07      0.8459   
  5.5100e-07      0.8487   
  5.5200e-07      0.8515   
  5.5300e-07      0.8542   
  5.5400e-07      0.8570   
  5.5500e-07      0.8599   
  5.5600e-07      0.8628   
  5.5700e-07      0.8658   
  5.5800e-07      0.8688   
  5.5900e-07      0.8717   
  5.6000e-07      0.8747   
  5.6100e-07      0.8777   
  5.6200e-07      0.8807   
  5.6300e-07      0.8839   
  5.6400e-07      0.8877   
  5.6500e-07      0.8915   
  5.6600e-07      0.8953   
  5.6700e-07      0.8991   
  5.6800e-07      0.9029   
  5.6900e-07      0.9067   
  5.7000e-07      0.9105   
  5.7100e-07      0.9143   
  5.7200e-07      0.9181   
  5.7300e-07      0.9219   
  5.7400e-07      0.9257   
  5.7500e-07      0.9295   
  5.7600e-07      0.9332   
  5.7700e-07      0.9356   
  5.7800e-07      0.9379   
  5.7900e-07      0.9403   
  5.8000e-07      0.9426   
  5.8100e-07      0.9450   
  5.8200e-07      0.9473   
  5.8300e-07      0.9497   
  5.8400e-07      0.9520   
  5.8500e-07      0.9537   
  5.8600e-07      0.9553   
  5.8700e-07      0.9569   
  5.8800e-07      0.9585   
  5.8900e-07      0.9602   
  5.9000e-07      0.9618   
  5.9100e-07      0.9634   
  5.9200e-07      0.9650   
  5.9300e-07      0.9666   
  5.9400e-07      0.9683   
  5.9500e-07      0.9695   
  5.9600e-07      0.9704   
  5.9700e-07      0.9713   
  5.9800e-07      0.9722   
  5.9900e-07      0.9731   
  6.0000e-07      0.9740   
  6.0100e-07      0.9748   
  6.0200e-07      0.9757   
  6.0300e-07      0.9766   
  6.0400e-07      0.9775   
  6.0500e-07      0.9784   
  6.0600e-07      0.9793   
  6.0700e-07      0.9802   
  6.0800e-07      0.9811   
  6.0900e-07      0.9818   
  6.1000e-07      0.9824   
  6.1100e-07      0.9830   
  6.1200e-07      0.9836   
  6.1300e-07      0.9842   
  6.1400e-07      0.9848   
  6.1500e-07      0.9854   
  6.1600e-07      0.9860   
  6.1700e-07      0.9866   
  6.1800e-07      0.9871   
  6.1900e-07      0.9876   
  6.2000e-07      0.9881   
  6.2100e-07      0.9887   
  6.2200e-07      0.9892   
  6.2300e-07      0.9897   
  6.2400e-07      0.9902   
  6.2500e-07      0.9907   
  6.2600e-07      0.9912   
  6.2700e-07      0.9918   
  6.2800e-07      0.9922   
  6.2900e-07      0.9924   
  6.3000e-07      0.9927   
  6.3100e-07      0.9930   
  6.3200e-07      0.9933   
  6.3300e-07      0.9935   
  6.3400e-07      0.9938   
  6.3500e-07      0.9941   
  6.3600e-07      0.9943   
  6.3700e-07      0.9945   
  6.3800e-07      0.9947   
  6.3900e-07      0.9948   
  6.4000e-07      0.9949   
  6.4100e-07      0.9951   
  6.4200e-07      0.9952   
  6.4300e-07      0.9954   
  6.4400e-07      0.9955   
  6.4500e-07      0.9957   
  6.4600e-07      0.9958   
  6.4700e-07      0.9959   
  6.4800e-07      0.9961   
  6.4900e-07      0.9962   
  6.5000e-07      0.9963   
  6.5100e-07      0.9965   
  6.5200e-07      0.9966   
  6.5300e-07      0.9967   
  6.5400e-07      0.9968   
  6.5500e-07      0.9969   
  6.5600e-07      0.9970   
  6.5700e-07      0.9971   
  6.5800e-07      0.9972   
  6.5900e-07      0.9973   
  6.6000e-07      0.9973   
  6.6100e-07      0.9974   
  6.6200e-07      0.9975   
  6.6300e-07      0.9976   
  6.6400e-07      0.9977   
  6.6500e-07      0.9977   
  6.6600e-07      0.9978   
  6.6700e-07      0.9979   
  6.6800e-07      0.9980   
  6.6900e-07      0.9980   
  6.7000e-07      0.9981   
  6.7100e-07      0.9982   
  6.7200e-07      0.9982   
  6.7300e-07      0.9983   
  6.7400e-07      0.9984   
  6.7500e-07      0.9984   
  6.7600e-07      0.9985   
  6.7700e-07      0.9985   
  6.7800e-07      0.9986   
  6.7900e-07      0.9986   
  6.8000e-07      0.9987   
  6.8100e-07      0.9987   
  6.8200e-07      0.9988   
  6.8300e-07      0.9988   
  6.8400e-07      0.9988   
  6.8500e-07      0.9989   
  6.8600e-07      0.9989   
  6.8700e-07      0.9990   
  6.8800e-07      0.9990   
  6.8900e-07      0.9990   
  6.9000e-07      0.9991   
  6.9100e-07      0.9991   
  6.9200e-07      0.9991   
  6.9300e-07      0.9991   
  6.9400e-07      0.9991   
  6.9500e-07      0.9992   
  6.9600e-07      0.9992   
  6.9700e-07      0.9992   
  6.9800e-07      0.9992   
  6.9900e-07      0.9992   
  7.0000e-07      0.9993   
  7.0100e-07      0.9993   
  7.0200e-07      0.9993   
  7.0300e-07      0.9993   
  7.0400e-07      0.9993   
  7.0500e-07      0.9994   
  7.0600e-07      0.9994   
  7.0700e-07      0.9994   
  7.0800e-07      0.9994   
  7.0900e-07      0.9994   
  7.1000e-07      0.9994   
  7.1100e-07      0.9995   
  7.1200e-07      0.9995   
  7.1300e-07      0.9995   
  7.1400e-07      0.9995   
  7.1500e-07      0.9995   
  7.1600e-07      0.9995   
  7.1700e-07      0.9995   
  7.1800e-07      0.9996   
  7.1900e-07      0.9996   
  7.2000e-07      0.9996   
  7.2100e-07      0.9996   
  7.2200e-07      0.9996   
  7.2300e-07      0.9996   
  7.2400e-07      0.9996   
  7.2500e-07      0.9996   
  7.2600e-07      0.9996   
  7.2700e-07      0.9996   
  7.2800e-07      0.9996   
  7.2900e-07      0.9997   
  7.3000e-07      0.9997   
  7.3100e-07      0.9997   
  7.3200e-07      0.9997   
  7.3300e-07      0.9997   
  7.3400e-07      0.9997   
  7.3500e-07      0.9997   
  7.3600e-07      0.9997   
  7.3700e-07      0.9997   
  7.3800e-07      0.9997   
  7.3900e-07      0.9997   
  7.4000e-07      0.9997   
  7.4100e-07      0.9997   
  7.4200e-07      0.9997   
  7.4300e-07      0.9997   
  7.4400e-07      0.9997   
  7.4500e-07      0.9997   
  7.4600e-07      0.9997   
  7.4700e-07      0.9997   
  7.4800e-07      0.9998   
  7.4900e-07      0.9998   
  7.5000e-07      0.9998   
  7.5100e-07      0.9998   
  7.5200e-07      0.9998   
  7.5300e-07      0.9998   
  7.5400e-07      0.9998   
  7.5500e-07      0.9998   
  7.5600e-07      0.9998   
  7.5700e-07      0.9998   
  7.5800e-07      0.9998   
  7.5900e-07      0.9998   
  7.6000e-07      0.9998   
  7.6100e-07      0.9998   
  7.6200e-07      0.9998   
  7.6300e-07      0.9998   
  7.6400e-07      0.9998   
  7.6500e-07      0.9998   
  7.6600e-07      0.9998   
  7.6700e-07      0.9998   
  7.6800e-07      0.9998   
  7.6900e-07      0.9998   
  7.7000e-07      0.9998   
  7.7100e-07      0.9998   
  7.7200e-07      0.9998   
  7.7300e-07      0.9998   
  7.7400e-07      0.9998   
  7.7500e-07      0.9998   
  7.7600e-07      0.9998   
  7.7700e-07      0.9998   
  7.7800e-07      0.9998   
  7.7900e-07      0.9998   
  7.8000e-07      0.9998   
  7.8100e-07      0.9998   
  7.8200e-07      0.9998   
  7.8300e-07      0.9998   
  7.8400e-07      0.9998   
  7.8500e-07      0.9998   
  7.8600e-07      0.9998   
  7.8700e-07      0.9998   
  7.8800e-07      0.9998   
  7.8900e-07      0.9998   
  7.9000e-07      0.9998   
  7.9100e-07      0.9998   
  7.9200e-07      0.9998   
  7.9300e-07      0.9998   
  7.9400e-07      0.9998   
  7.9500e-07      0.9998   
  7.9600e-07      0.9998   
  7.9700e-07      0.9998   
  7.9800e-07      0.9998   
  7.9900e-07      0.9998   
  8.0000e-07      0.9998   
  8.0100e-07      0.9998   
  8.0200e-07      0.9998   
  8.0300e-07      0.9998   
  8.0400e-07      0.9998   
  8.0500e-07      0.9998   
  8.0600e-07      0.9998   
  8.0700e-07      0.9998   
  8.0800e-07      0.9998   
  8.0900e-07      0.9998   
  8.1000e-07      0.9998   
  8.1100e-07      0.9998   
  8.1200e-07      0.9998   
  8.1300e-07      0.9998   
  8.1400e-07      0.9998   
  8.1500e-07      0.9998   
  8.1600e-07      0.9998   
  8.1700e-07      0.9998   
  8.1800e-07      0.9998   
  8.1900e-07      0.9998   
  8.2000e-07      0.9998   
  8.2100e-07      0.9998   
  8.2200e-07      0.9998   
  8.2300e-07      0.9998   
  8.2400e-07      0.9998   
  8.2500e-07      0.9998   
  8.2600e-07      0.9998   
  8.2700e-07      0.9998   
  8.2800e-07      0.9998   
  8.2900e-07      0.9998   
  8.3000e-07      0.9998   
  8.3100e-07      0.9998   
  8.3200e-07      0.9998   
  8.3300e-07      0.9998   
  8.3400e-07      0.9998   
  8.3500e-07      0.9998   
  8.3600e-07      0.9998   
  8.3700e-07      0.9998   
  8.3800e-07      0.9998   
  8.3900e-07      0.9999   
  8.4000e-07      0.9999   
  8.4100e-07      0.9999   
  8.4200e-07      0.9999   
  8.4300e-07      0.9999   
  8.4400e-07      0.9999   
  8.4500e-07      0.9999   
  8.4600e-07      0.9999   
  8.4700e-07      0.9999   
  8.4800e-07      0.9999   
  8.4900e-07      0.9999   
  8.5000e-07      0.9999   
  8.5100e-07      0.9999   
  8.5200e-07      0.9999   
  8.5300e-07      0.9998   
  8.5400e-07      0.9998   
  8.5500e-07      0.9998   
  8.5600e-07      0.9998   
  8.5700e-07      0.9998   
  8.5800e-07      0.9998   
  8.5900e-07      0.9998   
  8.6000e-07      0.9997   
  8.6100e-07      0.9997   
  8.6200e-07      0.9997   
  8.6300e-07      0.9997   
  8.6400e-07      0.9997   
  8.6500e-07      0.9997   
  8.6600e-07      0.9997   
  8.6700e-07      0.9997   
  8.6800e-07      0.9997   
  8.6900e-07      0.9997   
  8.7000e-07      0.9997   
  8.7100e-07      0.9997   
  8.7200e-07      0.9997   
  8.7300e-07      0.9997   
  8.7400e-07      0.9997   
  8.7500e-07      0.9997   
  8.7600e-07      0.9998   
  8.7700e-07      0.9998   
  8.7800e-07      0.9998   
  8.7900e-07      0.9998   
  8.8000e-07      0.9998   
  8.8100e-07      0.9998   
  8.8200e-07      0.9999   
  8.8300e-07      0.9999   
  8.8400e-07      0.9999   
  8.8500e-07      0.9999   
  8.8600e-07      0.9999   
  8.8700e-07      0.9999   
  8.8800e-07      0.9999   
  8.8900e-07      0.9999   
  8.9000e-07      0.9999   
  8.9100e-07      0.9999   
  8.9200e-07      1.0000   
  8.9300e-07      1.0000   
  8.9400e-07      1.0000   
  8.9500e-07      1.0000   
  8.9600e-07      1.0001   
  8.9700e-07      1.0002   
  8.9800e-07      1.0003   
  8.9900e-07      1.0004   
  9.0000e-07      1.0005   
  9.0100e-07      1.0006   
  9.0200e-07      1.0007   
  9.0300e-07      1.0008   
  9.0400e-07      1.0008   
  9.0500e-07      1.0009   
  9.0600e-07      1.0010   
  9.0700e-07      1.0011   
  9.0800e-07      1.0012   
  9.0900e-07      1.0013   
  9.1000e-07      1.0013   
  9.1100e-07      1.0013   
  9.1200e-07      1.0013   
  9.1300e-07      1.0012   
  9.1400e-07      1.0010   
  9.1500e-07      1.0007   
  9.1600e-07      1.0004   
  9.1700e-07      1.0001   
  9.1800e-07      0.9999   
  9.1900e-07      0.9996   
  9.2000e-07      0.9993   
  9.2100e-07      0.9989   
  9.2200e-07      0.9986   
  9.2300e-07      0.9982   
  9.2400e-07      0.9978   
  9.2500e-07      0.9974   
  9.2600e-07      0.9970   
  9.2700e-07      0.9966   
  9.2800e-07      0.9963   
  9.2900e-07      0.9959   
  9.3000e-07      0.9956   
  9.3100e-07      0.9954   
  9.3200e-07      0.9951   
  9.3300e-07      0.9949   
  9.3400e-07      0.9947   
  9.3500e-07      0.9944   
  9.3600e-07      0.9942   
  9.3700e-07      0.9939   
  9.3800e-07      0.9937   
  9.3900e-07      0.9935   
  9.4000e-07      0.9933   
  9.4100e-07      0.9931   
  9.4200e-07      0.9929   
  9.4300e-07      0.9927   
  9.4400e-07      0.9925   
  9.4500e-07      0.9923   
  9.4600e-07      0.9921   
  9.4700e-07      0.9920   
  9.4800e-07      0.9918   
  9.4900e-07      0.9916   
  9.5000e-07      0.9922   
  9.5100e-07      0.9937   
  9.5200e-07      0.9952   
  9.5300e-07      0.9966   
  9.5400e-07      0.9981   
  9.5500e-07      0.9996   
  9.5600e-07      1.0011   
  9.5700e-07      1.0026   
  9.5800e-07      1.0041   
  9.5900e-07      1.0056   
  9.6000e-07      1.0070   
  9.6100e-07      1.0085   
  9.6200e-07      1.0100   
  9.6300e-07      1.0127   
  9.6400e-07      1.0170   
  9.6500e-07      1.0214   
  9.6600e-07      1.0257   
  9.6700e-07      1.0300   
  9.6800e-07      1.0344   
  9.6900e-07      1.0387   
  9.7000e-07      1.0430   
  9.7100e-07      1.0472   
  9.7200e-07      1.0474   
  9.7300e-07      1.0477   
  9.7400e-07      1.0480   
  9.7500e-07      1.0483   
  9.7600e-07      1.0486   
  9.7700e-07      1.0488   
  9.7800e-07      1.0491   
  9.7900e-07      1.0494   
  9.8000e-07      1.0497   
  9.8100e-07      1.0500   
  9.8200e-07      1.0491   
  9.8300e-07      1.0410   
  9.8400e-07      1.0329   
  9.8500e-07      1.0247   
  9.8600e-07      1.0166   
  9.8700e-07      1.0084   
  9.8800e-07      1.0003   
  9.8900e-07      0.9921   
  9.9000e-07      0.9840   
  9.9100e-07      0.9701   
  9.9200e-07      0.9561   
  9.9300e-07      0.9420   
  9.9400e-07      0.9265   
  9.9500e-07      0.9110   
  9.9600e-07      0.8954   
  9.9700e-07      0.8714   
  9.9800e-07      0.8474   
  9.9900e-07      0.8234   
  1.0000e-06      0.7993   
  1.0010e-06      0.7753   
  1.0020e-06      0.7513   
  1.0030e-06      0.7273   
  1.0040e-06      0.7033   
  1.0050e-06      0.6793   
  1.0060e-06      0.6549   
  1.0070e-06      0.6245   
  1.0080e-06      0.5942   
  1.0090e-06      0.5638   
  1.0100e-06      0.5334   
  1.0110e-06      0.5030   
  1.0120e-06      0.4727   
  1.0130e-06      0.4423   
  1.0140e-06      0.4119   
  1.0150e-06      0.3878   
  1.0160e-06      0.3665   
  1.0170e-06      0.3452   
  1.0180e-06      0.3239   
  1.0190e-06      0.3027   
  1.0200e-06      0.2814   
  1.0210e-06      0.2601   
  1.0220e-06      0.2389   
  1.0230e-06      0.2176   
  1.0240e-06      0.1963   
  1.0250e-06      0.1758   
  1.0260e-06      0.1627   
  1.0270e-06      0.1495   
  1.0280e-06      0.1364   
  1.0290e-06      0.1233   
  1.0300e-06      0.1102   
  1.0310e-06    9.703e-02  
  1.0320e-06    8.391e-02  
  1.0330e-06    7.293e-02  
  1.0340e-06    7.095e-02  
  1.0350e-06    6.897e-02  
  1.0360e-06    6.700e-02  
  1.0370e-06    6.502e-02  
  1.0380e-06    6.304e-02  
  1.0390e-06    6.106e-02  
  1.0400e-06    5.908e-02  
  1.0410e-06    5.710e-02  
  1.0420e-06    5.512e-02  
  1.0430e-06    5.314e-02  
  1.0440e-06    5.116e-02  
  1.0450e-06    4.918e-02  
  1.0460e-06    4.755e-02  
  1.0470e-06    4.688e-02  
  1.0480e-06    4.621e-02  
  1.0490e-06    4.553e-02  
  1.0500e-06    4.486e-02  
  1.0510e-06    4.418e-02  
  1.0520e-06    4.351e-02  
  1.0530e-06    4.284e-02  
  1.0540e-06    4.212e-02  
  1.0550e-06    4.137e-02  
  1.0560e-06    4.062e-02  
  1.0570e-06    3.988e-02  
  1.0580e-06    3.913e-02  
  1.0590e-06    3.838e-02  
  1.0600e-06    3.764e-02  
  1.0610e-06    3.689e-02  
  1.0620e-06    3.614e-02  
  1.0630e-06    3.540e-02  
  1.0640e-06    3.462e-02  
  1.0650e-06    3.380e-02  
  1.0660e-06    3.298e-02  
  1.0670e-06    3.216e-02  
  1.0680e-06    3.134e-02  
  1.0690e-06    3.051e-02  
  1.0700e-06    2.969e-02  
  1.0710e-06    2.887e-02  
  1.0720e-06    2.805e-02  
  1.0730e-06    2.723e-02  
  1.0740e-06    2.640e-02  
  1.0750e-06    2.558e-02  
  1.0760e-06    2.476e-02  
  1.0770e-06    2.394e-02  
  1.0780e-06    2.311e-02  
  1.0790e-06    2.230e-02  
  1.0800e-06    2.150e-02  
  1.0810e-06    2.071e-02  
  1.0820e-06    1.991e-02  
  1.0830e-06    1.906e-02  
  1.0840e-06    1.821e-02  
  1.0850e-06    1.739e-02  
  1.0860e-06    1.718e-02  
  1.0870e-06    1.697e-02  
  1.0880e-06    1.676e-02  
  1.0890e-06    1.654e-02  
  1.0900e-06    1.633e-02  
  1.0910e-06    1.612e-02  
  1.0920e-06    1.590e-02  
  1.0930e-06    1.569e-02  
  1.0940e-06    1.551e-02  
  1.0950e-06    1.576e-02  
  1.0960e-06    1.600e-02  
  1.0970e-06    1.624e-02  
  1.0980e-06    1.648e-02  
  1.0990e-06    1.673e-02  
  1.1000e-06    1.697e-02  
  1.1010e-06    1.697e-02  
  1.1020e-06    1.673e-02  
  1.1030e-06    1.650e-02  
  1.1040e-06    1.626e-02  
  1.1050e-06    1.602e-02  
  1.1060e-06    1.579e-02  
  1.1070e-06    1.555e-02  
  1.1080e-06    1.532e-02  
  1.1090e-06    1.508e-02  
  1.1100e-06    1.483e-02  
  1.1110e-06    1.457e-02  
  1.1120e-06    1.430e-02  
  1.1130e-06    1.404e-02  
  1.1140e-06    1.377e-02  
  1.1150e-06    1.350e-02  
  1.1160e-06    1.324e-02  
  1.1170e-06    1.297e-02  
  1.1180e-06    1.271e-02  
  1.1190e-06    1.256e-02  
  1.1200e-06    1.241e-02  
  1.1210e-06    1.226e-02  
  1.1220e-06    1.211e-02  
  1.1230e-06    1.196e-02  
  1.1240e-06    1.181e-02  
  1.1250e-06    1.166e-02  
  1.1260e-06    1.151e-02  
  1.1270e-06    1.136e-02  
  1.1280e-06    1.121e-02  
  1.1290e-06    1.105e-02  
  1.1300e-06    1.090e-02  
  1.1310e-06    1.075e-02  
  1.1320e-06    1.060e-02  
  1.1330e-06    1.045e-02  
  1.1340e-06    1.030e-02  
  1.1350e-06    1.016e-02  
  1.1360e-06    1.008e-02  
  1.1370e-06    9.989e-03  
  1.1380e-06    9.902e-03  
  1.1390e-06    9.814e-03  
  1.1400e-06    9.727e-03  
  1.1410e-06    9.639e-03  
  1.1420e-06    9.552e-03  
  1.1430e-06    9.464e-03  
  1.1440e-06    9.376e-03  
  1.1450e-06    9.289e-03  
  1.1460e-06    9.201e-03  
  1.1470e-06    9.114e-03  
  1.1480e-06    9.029e-03  
  1.1490e-06    9.034e-03  
  1.1500e-06    9.040e-03  
  1.1510e-06    9.045e-03  
  1.1520e-06    9.050e-03  
  1.1530e-06    9.056e-03  
  1.1540e-06    9.061e-03  
  1.1550e-06    9.066e-03  
  1.1560e-06    9.071e-03  
  1.1570e-06    9.071e-03  
  1.1580e-06    9.020e-03  
  1.1590e-06    8.969e-03  
  1.1600e-06    8.918e-03  
  1.1610e-06    8.867e-03  
  1.1620e-06    8.817e-03  
  1.1630e-06    8.766e-03  
  1.1640e-06    8.715e-03  
  1.1650e-06    8.664e-03  
  1.1660e-06    8.613e-03  
  1.1670e-06    8.562e-03  
  1.1680e-06    8.511e-03  
  1.1690e-06    8.463e-03  
  1.1700e-06    8.431e-03  
  1.1710e-06    8.400e-03  
  1.1720e-06    8.373e-03  
  1.1730e-06    8.349e-03  
  1.1740e-06    8.325e-03  
  1.1750e-06    8.307e-03  
  1.1760e-06    8.294e-03  
  1.1770e-06    8.282e-03  
  1.1780e-06    8.270e-03  
  1.1790e-06    8.258e-03  
  1.1800e-06    8.246e-03  
  1.1810e-06    8.233e-03  
  1.1820e-06    8.221e-03  
  1.1830e-06    8.209e-03  
  1.1840e-06    8.197e-03  
  1.1850e-06    8.186e-03  
  1.1860e-06    8.178e-03  
  1.1870e-06    8.169e-03  
  1.1880e-06    8.161e-03  
  1.1890e-06    8.153e-03  
  1.1900e-06    8.144e-03  
  1.1910e-06    8.136e-03  
  1.1920e-06    8.128e-03  
  1.1930e-06    8.120e-03  
  1.1940e-06    8.114e-03  
  1.1950e-06    8.109e-03  
  1.1960e-06    8.104e-03  
  1.1970e-06    8.098e-03  
  1.1980e-06    8.093e-03  
  1.1990e-06    8.087e-03  
  1.2000e-06    8.082e-03  
  1.2010e-06    8.077e-03  
  1.2020e-06    8.071e-03  
  1.2030e-06    8.066e-03  
  1.2040e-06    8.062e-03  
  1.2050e-06    8.058e-03  
  1.2060e-06    8.054e-03  
  1.2070e-06    8.050e-03  
  1.2080e-06    8.046e-03  
  1.2090e-06    8.042e-03  
  1.2100e-06    8.039e-03  
  1.2110e-06    8.035e-03  
  1.2120e-06    8.030e-03  
  1.2130e-06    8.026e-03  
  1.2140e-06    8.022e-03  
  1.2150e-06    8.017e-03  
  1.2160e-06    8.013e-03  
  1.2170e-06    8.009e-03  
  1.2180e-06    8.005e-03  
  1.2190e-06    8.000e-03  
  1.2200e-06    7.996e-03  
  1.2210e-06    7.992e-03  
  1.2220e-06    7.987e-03  
  1.2230e-06    7.983e-03  
  1.2240e-06    7.979e-03  
  1.2250e-06    7.976e-03  
  1.2260e-06    7.973e-03  
  1.2270e-06    7.971e-03  
  1.2280e-06    7.968e-03  
  1.2290e-06    7.965e-03  
  1.2300e-06    7.962e-03  
  1.2310e-06    7.959e-03  
  1.2320e-06    7.958e-03  
  1.2330e-06    7.957e-03  
  1.2340e-06    7.956e-03  
  1.2350e-06    7.956e-03  
  1.2360e-06    7.955e-03  
  1.2370e-06    7.954e-03  
  1.2380e-06    7.954e-03  
  1.2390e-06    7.953e-03  
  1.2400e-06    7.953e-03  
  1.2410e-06    7.952e-03  
  1.2420e-06    7.951e-03  
  1.2430e-06    7.950e-03  
  1.2440e-06    7.949e-03  
  1.2450e-06    7.948e-03  
  1.2460e-06    7.946e-03  
  1.2470e-06    7.945e-03  
  1.2480e-06    7.944e-03  
  1.2490e-06    7.943e-03  
  1.2500e-06    7.942e-03  
  1.2510e-06    7.940e-03  
  1.2520e-06    7.939e-03  
  1.2530e-06    7.938e-03  
  1.2540e-06    7.937e-03  
  1.2550e-06    7.936e-03  
  1.2560e-06    7.934e-03  
  1.2570e-06    7.933e-03  
  1.2580e-06    7.933e-03  
  1.2590e-06    7.932e-03  
  1.2600e-06    7.931e-03  
  1.2610e-06    7.931e-03  
  1.2620e-06    7.930e-03  
  1.2630e-06    7.930e-03  
  1.2640e-06    7.929e-03  
  1.2650e-06    7.928e-03  
  1.2660e-06    7.927e-03  
  1.2670e-06    7.926e-03  
  1.2680e-06    7.925e-03  
  1.2690e-06    7.925e-03  
  1.2700e-06    7.924e-03  
  1.2710e-06    7.923e-03  
  1.2720e-06    7.922e-03  
  1.2730e-06    7.922e-03  
  1.2740e-06    7.922e-03  
  1.2750e-06    7.921e-03  
  1.2760e-06    7.921e-03  
  1.2770e-06    7.921e-03  
  1.2780e-06    7.920e-03  
  1.2790e-06    7.920e-03  
  1.2800e-06    7.921e-03  
  1.2810e-06    7.921e-03  
  1.2820e-06    7.921e-03  
  1.2830e-06    7.922e-03  
  1.2840e-06    7.922e-03  
  1.2850e-06    7.922e-03  
  1.2860e-06    7.923e-03  
  1.2870e-06    7.923e-03  
  1.2880e-06    7.923e-03  
  1.2890e-06    7.922e-03  
  1.2900e-06    7.921e-03  
  1.2910e-06    7.921e-03  
  1.2920e-06    7.920e-03  
  1.2930e-06    7.920e-03  
  1.2940e-06    7.919e-03  
  1.2950e-06    7.918e-03  
  1.2960e-06    7.918e-03  
  1.2970e-06    7.917e-03  
  1.2980e-06    7.917e-03  
  1.2990e-06    7.917e-03  
  1.3000e-06    7.917e-03  
  1.3010e-06    7.916e-03  
  1.3020e-06    7.916e-03  
  1.3030e-06    7.916e-03  
  1.3040e-06    7.915e-03  
  1.3050e-06    7.915e-03  
  1.3060e-06    7.915e-03  
  1.3070e-06    7.914e-03  
  1.3080e-06    7.914e-03  
  1.3090e-06    7.914e-03  
  1.3100e-06    7.913e-03  
  1.3110e-06    7.913e-03  
  1.3120e-06    7.913e-03  
  1.3130e-06    7.913e-03  
  1.3140e-06    7.914e-03  
  1.3150e-06    7.914e-03  
  1.3160e-06    7.915e-03  
  1.3170e-06    7.916e-03  
  1.3180e-06    7.917e-03  
  1.3190e-06    7.918e-03  
  1.3200e-06    7.919e-03  
  1.3210e-06    7.919e-03  
  1.3220e-06    7.920e-03  
  1.3230e-06    7.921e-03  
  1.3240e-06    7.922e-03  
  1.3250e-06    7.923e-03  
  1.3260e-06    7.922e-03  
  1.3270e-06    7.916e-03  
  1.3280e-06    7.910e-03  
  1.3290e-06    7.904e-03  
  1.3300e-06    7.897e-03  
  1.3310e-06    7.891e-03  
  1.3320e-06    7.885e-03  
  1.3330e-06    7.879e-03  
  1.3340e-06    7.872e-03  
  1.3350e-06    7.868e-03  
  1.3360e-06    7.873e-03  
  1.3370e-06    7.877e-03  
  1.3380e-06    7.881e-03  
  1.3390e-06    7.885e-03  
  1.3400e-06    7.890e-03  
  1.3410e-06    7.894e-03  
  1.3420e-06    7.898e-03  
  1.3430e-06    7.903e-03  
  1.3440e-06    7.907e-03  
  1.3450e-06    7.911e-03  
  1.3460e-06    7.915e-03  
  1.3470e-06    7.920e-03  
  1.3480e-06    7.925e-03  
  1.3490e-06    7.930e-03  
  1.3500e-06    7.935e-03  
  1.3510e-06    7.940e-03  
  1.3520e-06    7.945e-03  
  1.3530e-06    7.950e-03  
  1.3540e-06    7.955e-03  
  1.3550e-06    7.959e-03  
  1.3560e-06    7.964e-03  
  1.3570e-06    7.959e-03  
  1.3580e-06    7.954e-03  
  1.3590e-06    7.946e-03  
  1.3600e-06    7.934e-03  
  1.3610e-06    7.922e-03  
  1.3620e-06    7.924e-03  
  1.3630e-06    7.934e-03  
  1.3640e-06    7.944e-03  
  1.3650e-06    7.954e-03  
  1.3660e-06    7.965e-03  
  1.3670e-06    7.975e-03  
  1.3680e-06    7.985e-03  
  1.3690e-06    7.995e-03  
  1.3700e-06    8.005e-03  
  1.3710e-06    8.019e-03  
  1.3720e-06    8.033e-03  
  1.3730e-06    8.047e-03  
  1.3740e-06    8.061e-03  
  1.3750e-06    8.075e-03  
  1.3760e-06    8.088e-03  
  1.3770e-06    8.102e-03  
  1.3780e-06    8.106e-03  
  1.3790e-06    8.098e-03  
  1.3800e-06    8.091e-03  
  1.3810e-06    8.083e-03  
  1.3820e-06    8.075e-03  
  1.3830e-06    8.067e-03  
  1.3840e-06    8.060e-03  
  1.3850e-06    8.052e-03  
  1.3860e-06    8.043e-03  
  1.3870e-06    7.959e-03  
  1.3880e-06    7.875e-03  
  1.3890e-06    7.791e-03  
  1.3900e-06    7.707e-03  
  1.3910e-06    7.623e-03  
  1.3920e-06    7.540e-03  
  1.3930e-06    7.456e-03  
  1.3940e-06    7.372e-03  
  1.3950e-06    7.288e-03  
  1.3960e-06    7.204e-03  
  1.3970e-06    7.120e-03  
  1.3980e-06    7.081e-03  
  1.3990e-06    7.067e-03  
  1.4000e-06    7.053e-03  
  1.4010e-06    7.039e-03  
  1.4020e-06    7.025e-03  
  1.4030e-06    7.011e-03  
  1.4040e-06    6.997e-03  
  1.4050e-06    7.015e-03  
  1.4060e-06    7.073e-03  
  1.4070e-06    7.131e-03  
  1.4080e-06    7.189e-03  
  1.4090e-06    7.247e-03  
  1.4100e-06    7.305e-03  
  1.4110e-06    7.363e-03  
  1.4120e-06    7.421e-03  
  1.4130e-06    7.478e-03  
  1.4140e-06    7.536e-03  
  1.4150e-06    7.594e-03  
  1.4160e-06    7.650e-03  
  1.4170e-06    7.703e-03  
  1.4180e-06    7.755e-03  
  1.4190e-06    7.808e-03  
  1.4200e-06    7.861e-03  
  1.4210e-06    7.914e-03  
  1.4220e-06    7.967e-03  
  1.4230e-06    8.019e-03  
  1.4240e-06    8.072e-03  
  1.4250e-06    8.125e-03  
  1.4260e-06    8.178e-03  
  1.4270e-06    8.231e-03  
  1.4280e-06    8.663e-03  
  1.4290e-06    9.209e-03  
  1.4300e-06    9.755e-03  
  1.4310e-06    1.030e-02  
  1.4320e-06    1.085e-02  
  1.4330e-06    1.139e-02  
  1.4340e-06    1.194e-02  
  1.4350e-06    1.248e-02  
  1.4360e-06    1.303e-02  
  1.4370e-06    1.358e-02  
  1.4380e-06    1.412e-02  
  1.4390e-06    1.467e-02  
  1.4400e-06    1.521e-02  
  1.4410e-06    1.563e-02  
  1.4420e-06    1.566e-02  
  1.4430e-06    1.570e-02  
  1.4440e-06    1.574e-02  
  1.4450e-06    1.577e-02  
  1.4460e-06    1.581e-02  
  1.4470e-06    1.585e-02  
  1.4480e-06    1.588e-02  
  1.4490e-06    1.538e-02  
  1.4500e-06    1.361e-02  
  1.4510e-06    1.184e-02  
  1.4520e-06    1.008e-02  
  1.4530e-06    8.311e-03  
  1.4540e-06    6.545e-03  
  1.4550e-06    4.778e-03  
  1.4560e-06    3.012e-03  
  1.4570e-06    1.246e-03  
  1.4580e-06   -5.208e-04  
  1.4590e-06   -2.287e-03  
  1.4600e-06   -4.054e-03  
  1.4610e-06   -5.820e-03  
  1.4620e-06   -7.587e-03  
  1.4630e-06   -9.856e-03  
  1.4640e-06   -1.213e-02  
  1.4650e-06   -1.441e-02  
  1.4660e-06   -1.669e-02  
  1.4670e-06   -1.897e-02  
  1.4680e-06   -2.125e-02  
  1.4690e-06   -2.353e-02  
  1.4700e-06   -2.580e-02  
  1.4710e-06   -2.824e-02  
  1.4720e-06   -3.069e-02  
  1.4730e-06   -3.315e-02  
  1.4740e-06   -3.560e-02  
  1.4750e-06   -3.805e-02  
  1.4760e-06   -4.051e-02  
  1.4770e-06   -4.296e-02  
  1.4780e-06   -4.541e-02  
  1.4790e-06   -4.787e-02  
  1.4800e-06   -5.032e-02  
  1.4810e-06   -4.956e-02  
  1.4820e-06   -4.486e-02  
  1.4830e-06   -4.016e-02  
  1.4840e-06   -3.545e-02  
  1.4850e-06   -3.075e-02  
  1.4860e-06   -2.604e-02  
  1.4870e-06   -2.134e-02  
  1.4880e-06   -1.664e-02  
  1.4890e-06   -1.193e-02  
  1.4900e-06   -7.228e-03  
  1.4910e-06   -2.524e-03  
  1.4920e-06    2.179e-03  
  1.4930e-06    6.883e-03  
  1.4940e-06    1.159e-02  
  1.4950e-06    2.399e-02  
  1.4960e-06    4.577e-02  
  1.4970e-06    6.754e-02  
  1.4980e-06    8.932e-02  
  1.4990e-06      0.1111   
  1.5000e-06      0.1329   
  1.5010e-06      0.1547   
  1.5020e-06      0.1764   
  1.5030e-06      0.1982   
  1.5040e-06      0.2207   
  1.5050e-06      0.2432   
  1.5060e-06      0.2657   
  1.5070e-06      0.2882   
  1.5080e-06      0.3107   
  1.5090e-06      0.3332   
  1.5100e-06      0.3557   
  1.5110e-06      0.3782   
  1.5120e-06      0.4008   
  1.5130e-06      0.4233   
  1.5140e-06      0.4437   
  1.5150e-06      0.4609   
  1.5160e-06      0.4782   
  1.5170e-06      0.4954   
  1.5180e-06      0.5127   
  1.5190e-06      0.5299   
  1.5200e-06      0.5471   
  1.5210e-06      0.5644   
  1.5220e-06      0.5816   
  1.5230e-06      0.5946   
  1.5240e-06      0.6062   
  1.5250e-06      0.6177   
  1.5260e-06      0.6293   
  1.5270e-06      0.6408   
  1.5280e-06      0.6524   
  1.5290e-06      0.6640   
  1.5300e-06      0.6755   
  1.5310e-06      0.6871   
  1.5320e-06      0.6986   
  1.5330e-06      0.7102   
  1.5340e-06      0.7208   
  1.5350e-06      0.7306   
  1.5360e-06      0.7405   
  1.5370e-06      0.7510   
  1.5380e-06      0.7615   
  1.5390e-06      0.7707   
  1.5400e-06      0.7774   
  1.5410e-06      0.7841   
  1.5420e-06      0.7908   
  1.5430e-06      0.7975   
  1.5440e-06      0.8043   
  1.5450e-06      0.8110   
  1.5460e-06      0.8177   
  1.5470e-06      0.8244   
  1.5480e-06      0.8287   
  1.5490e-06      0.8314   
  1.5500e-06      0.8341   
  1.5510e-06      0.8368   
  1.5520e-06      0.8395   
  1.5530e-06      0.8422   
  1.5540e-06      0.8449   
  1.5550e-06      0.8476   
  1.5560e-06      0.8502   
  1.5570e-06      0.8527   
  1.5580e-06      0.8553   
  1.5590e-06      0.8578   
  1.5600e-06      0.8604   
  1.5610e-06      0.8630   
  1.5620e-06      0.8655   
  1.5630e-06      0.8681   
  1.5640e-06      0.8715   
  1.5650e-06      0.8755   
  1.5660e-06      0.8794   
  1.5670e-06      0.8834   
  1.5680e-06      0.8873   
  1.5690e-06      0.8913   
  1.5700e-06      0.8952   
  1.5710e-06      0.8992   
  1.5720e-06      0.9032   
  1.5730e-06      0.9071   
  1.5740e-06      0.9111   
  1.5750e-06      0.9150   
  1.5760e-06      0.9182   
  1.5770e-06      0.9215   
  1.5780e-06      0.9247   
  1.5790e-06      0.9279   
  1.5800e-06      0.9311   
  1.5810e-06      0.9344   
  1.5820e-06      0.9376   
  1.5830e-06      0.9398   
  1.5840e-06      0.9419   
  1.5850e-06      0.9439   
  1.5860e-06      0.9460   
  1.5870e-06      0.9480   
  1.5880e-06      0.9501   
  1.5890e-06      0.9522   
  1.5900e-06      0.9542   
  1.5910e-06      0.9563   
  1.5920e-06      0.9583   
  1.5930e-06      0.9604   
  1.5940e-06      0.9617   
  1.5950e-06      0.9630   
  1.5960e-06      0.9643   
  1.5970e-06      0.9656   
  1.5980e-06      0.9668   
  1.5990e-06      0.9681   
  1.6000e-06      0.9694   
  1.6010e-06      0.9707   
  1.6020e-06      0.9720   
  1.6030e-06      0.9733   
  1.6040e-06      0.9746   
  1.6050e-06      0.9758   
  1.6060e-06      0.9766   
  1.6070e-06      0.9773   
  1.6080e-06      0.9779   
  1.6090e-06      0.9786   
  1.6100e-06      0.9792   
  1.6110e-06      0.9798   
  1.6120e-06      0.9805   
  1.6130e-06      0.9811   
  1.6140e-06      0.9817   
  1.6150e-06      0.9824   
  1.6160e-06      0.9830   
  1.6170e-06      0.9836   
  1.6180e-06      0.9843   
  1.6190e-06      0.9849   
  1.6200e-06      0.9856   
  1.6210e-06      0.9863   
  1.6220e-06      0.9869   
  1.6230e-06      0.9876   
  1.6240e-06      0.9882   
  1.6250e-06      0.9887   
  1.6260e-06      0.9892   
  1.6270e-06      0.9897   
  1.6280e-06      0.9902   
  1.6290e-06      0.9906   
  1.6300e-06      0.9911   
  1.6310e-06      0.9916   
  1.6320e-06      0.9920   
  1.6330e-06      0.9922   
  1.6340e-06      0.9925   
  1.6350e-06      0.9928   
  1.6360e-06      0.9931   
  1.6370e-06      0.9933   
  1.6380e-06      0.9936   
  1.6390e-06      0.9939   
  1.6400e-06      0.9941   
  1.6410e-06      0.9944   
  1.6420e-06      0.9945   
  1.6430e-06      0.9947   
  1.6440e-06      0.9949   
  1.6450e-06      0.9950   
  1.6460e-06      0.9952   
  1.6470e-06      0.9953   
  1.6480e-06      0.9955   
  1.6490e-06      0.9956   
  1.6500e-06      0.9958   
  1.6510e-06      0.9959   
  1.6520e-06      0.9960   
  1.6530e-06      0.9961   
  1.6540e-06      0.9962   
  1.6550e-06      0.9964   
  1.6560e-06      0.9965   
  1.6570e-06      0.9966   
  1.6580e-06      0.9967   
  1.6590e-06      0.9968   
  1.6600e-06      0.9969   
  1.6610e-06      0.9971   
  1.6620e-06      0.9972   
  1.6630e-06      0.9973   
  1.6640e-06      0.9974   
  1.6650e-06      0.9974   
  1.6660e-06      0.9975   
  1.6670e-06      0.9976   
  1.6680e-06      0.9976   
  1.6690e-06      0.9977   
  1.6700e-06      0.9978   
  1.6710e-06      0.9978   
  1.6720e-06      0.9979   
  1.6730e-06      0.9980   
  1.6740e-06      0.9981   
  1.6750e-06      0.9981   
  1.6760e-06      0.9982   
  1.6770e-06      0.9983   
  1.6780e-06      0.9983   
  1.6790e-06      0.9984   
  1.6800e-06      0.9985   
  1.6810e-06      0.9985   
  1.6820e-06      0.9986   
  1.6830e-06      0.9986   
  1.6840e-06      0.9987   
  1.6850e-06      0.9987   
  1.6860e-06      0.9988   
  1.6870e-06      0.9988   
  1.6880e-06      0.9988   
  1.6890e-06      0.9989   
  1.6900e-06      0.9989   
  1.6910e-06      0.9989   
  1.6920e-06      0.9990   
  1.6930e-06      0.9990   
  1.6940e-06      0.9990   
  1.6950e-06      0.9991   
  1.6960e-06      0.9991   
  1.6970e-06      0.9991   
  1.6980e-06      0.9992   
  1.6990e-06      0.9992   
  1.7000e-06      0.9992   
  1.7010e-06      0.9992   
  1.7020e-06      0.9992   
  1.7030e-06      0.9992   
  1.7040e-06      0.9993   
  1.7050e-06      0.9993   
  1.7060e-06      0.9993   
  1.7070e-06      0.9993   
  1.7080e-06      0.9993   
  1.7090e-06      0.9994   
  1.7100e-06      0.9994   
  1.7110e-06      0.9994   
  1.7120e-06      0.9994   
  1.7130e-06      0.9994   
  1.7140e-06      0.9994   
  1.7150e-06      0.9995   
  1.7160e-06      0.9995   
  1.7170e-06      0.9995   
  1.7180e-06      0.9995   
  1.7190e-06      0.9995   
  1.7200e-06      0.9995   
  1.7210e-06      0.9995   
  1.7220e-06      0.9996   
  1.7230e-06      0.9996   
  1.7240e-06      0.9996   
  1.7250e-06      0.9996   
  1.7260e-06      0.9996   
  1.7270e-06      0.9996   
  1.7280e-06      0.9996   
  1.7290e-06      0.9996   
  1.7300e-06      0.9996   
  1.7310e-06      0.9996   
  1.7320e-06      0.9997   
  1.7330e-06      0.9997   
  1.7340e-06      0.9997   
  1.7350e-06      0.9997   
  1.7360e-06      0.9997   
  1.7370e-06      0.9997   
  1.7380e-06      0.9997   
  1.7390e-06      0.9997   
  1.7400e-06      0.9997   
  1.7410e-06      0.9997   
  1.7420e-06      0.9997   
  1.7430e-06      0.9997   
  1.7440e-06      0.9997   
  1.7450e-06      0.9997   
  1.7460e-06      0.9997   
  1.7470e-06      0.9997   
  1.7480e-06      0.9997   
  1.7490e-06      0.9997   
  1.7500e-06      0.9997   
  1.7510e-06      0.9997   
  1.7520e-06      0.9998   
  1.7530e-06      0.9998   
  1.7540e-06      0.9998   
  1.7550e-06      0.9998   
  1.7560e-06      0.9998   
  1.7570e-06      0.9998   
  1.7580e-06      0.9998   
  1.7590e-06      0.9998   
  1.7600e-06      0.9998   
  1.7610e-06      0.9998   
  1.7620e-06      0.9998   
  1.7630e-06      0.9998   
  1.7640e-06      0.9998   
  1.7650e-06      0.9998   
  1.7660e-06      0.9998   
  1.7670e-06      0.9998   
  1.7680e-06      0.9998   
  1.7690e-06      0.9998   
  1.7700e-06      0.9998   
  1.7710e-06      0.9998   
  1.7720e-06      0.9998   
  1.7730e-06      0.9998   
  1.7740e-06      0.9998   
  1.7750e-06      0.9998   
  1.7760e-06      0.9998   
  1.7770e-06      0.9998   
  1.7780e-06      0.9998   
  1.7790e-06      0.9998   
  1.7800e-06      0.9998   
  1.7810e-06      0.9998   
  1.7820e-06      0.9998   
  1.7830e-06      0.9998   
  1.7840e-06      0.9998   
  1.7850e-06      0.9998   
  1.7860e-06      0.9998   
  1.7870e-06      0.9998   
  1.7880e-06      0.9998   
  1.7890e-06      0.9998   
  1.7900e-06      0.9998   
  1.7910e-06      0.9998   
  1.7920e-06      0.9998   
  1.7930e-06      0.9998   
  1.7940e-06      0.9998   
  1.7950e-06      0.9998   
  1.7960e-06      0.9998   
  1.7970e-06      0.9998   
  1.7980e-06      0.9998   
  1.7990e-06      0.9998   
  1.8000e-06      0.9998   
  1.8010e-06      0.9998   
  1.8020e-06      0.9998   
  1.8030e-06      0.9998   
  1.8040e-06      0.9998   
  1.8050e-06      0.9998   
  1.8060e-06      0.9998   
  1.8070e-06      0.9998   
  1.8080e-06      0.9998   
  1.8090e-06      0.9998   
  1.8100e-06      0.9998   
  1.8110e-06      0.9998   
  1.8120e-06      0.9998   
  1.8130e-06      0.9998   
  1.8140e-06      0.9998   
  1.8150e-06      0.9998   
  1.8160e-06      0.9998   
  1.8170e-06      0.9998   
  1.8180e-06      0.9998   
  1.8190e-06      0.9998   
  1.8200e-06      0.9998   
  1.8210e-06      0.9998   
  1.8220e-06      0.9998   
  1.8230e-06      0.9998   
  1.8240e-06      0.9998   
  1.8250e-06      0.9998   
  1.8260e-06      0.9998   
  1.8270e-06      0.9998   
  1.8280e-06      0.9998   
  1.8290e-06      0.9998   
  1.8300e-06      0.9998   
  1.8310e-06      0.9998   
  1.8320e-06      0.9998   
  1.8330e-06      0.9998   
  1.8340e-06      0.9998   
  1.8350e-06      0.9998   
  1.8360e-06      0.9998   
  1.8370e-06      0.9998   
  1.8380e-06      0.9998   
  1.8390e-06      0.9998   
  1.8400e-06      0.9998   
  1.8410e-06      0.9998   
  1.8420e-06      0.9998   
  1.8430e-06      0.9999   
  1.8440e-06      0.9999   
  1.8450e-06      0.9999   
  1.8460e-06      0.9999   
  1.8470e-06      0.9999   
  1.8480e-06      0.9999   
  1.8490e-06      0.9999   
  1.8500e-06      0.9999   
  1.8510e-06      0.9999   
  1.8520e-06      0.9999   
  1.8530e-06      0.9999   
  1.8540e-06      0.9999   
  1.8550e-06      0.9999   
  1.8560e-06      0.9999   
  1.8570e-06      0.9999   
  1.8580e-06      0.9998   
  1.8590e-06      0.9998   
  1.8600e-06      0.9998   
  1.8610e-06      0.9998   
  1.8620e-06      0.9998   
  1.8630e-06      0.9998   
  1.8640e-06      0.9997   
  1.8650e-06      0.9997   
  1.8660e-06      0.9997   
  1.8670e-06      0.9997   
  1.8680e-06      0.9997   
  1.8690e-06      0.9997   
  1.8700e-06      0.9997   
  1.8710e-06      0.9997   
  1.8720e-06      0.9997   
  1.8730e-06      0.9997   
  1.8740e-06      0.9997   
  1.8750e-06      0.9997   
  1.8760e-06      0.9997   
  1.8770e-06      0.9997   
  1.8780e-06      0.9997   
  1.8790e-06      0.9998   
  1.8800e-06      0.9998   
  1.8810e-06      0.9998   
  1.8820e-06      0.9998   
  1.8830e-06      0.9998   
  1.8840e-06      0.9998   
  1.8850e-06      0.9998   
  1.8860e-06      0.9998   
  1.8870e-06      0.9998   
  1.8880e-06      0.9998   
  1.8890e-06      0.9999   
  1.8900e-06      0.9999   
  1.8910e-06      0.9999   
  1.8920e-06      0.9999   
  1.8930e-06      0.9999   
  1.8940e-06      0.9999   
  1.8950e-06      1.0000   
  1.8960e-06      1.0000   
  1.8970e-06      1.0000   
  1.8980e-06      1.0001   
  1.8990e-06      1.0001   
  1.9000e-06      1.0001   
  1.9010e-06      1.0002   
  1.9020e-06      1.0003   
  1.9030e-06      1.0004   
  1.9040e-06      1.0005   
  1.9050e-06      1.0006   
  1.9060e-06      1.0007   
  1.9070e-06      1.0008   
  1.9080e-06      1.0009   
  1.9090e-06      1.0010   
  1.9100e-06      1.0011   
  1.9110e-06      1.0012   
  1.9120e-06      1.0012   
  1.9130e-06      1.0012   
  1.9140e-06      1.0011   
  1.9150e-06      1.0011   
  1.9160e-06      1.0011   
  1.9170e-06      1.0010   
  1.9180e-06      1.0010   
  1.9190e-06      1.0010   
  1.9200e-06      1.0007   
  1.9210e-06      1.0003   
  1.9220e-06      1.0000   
  1.9230e-06      0.9996   
  1.9240e-06      0.9993   
  1.9250e-06      0.9989   
  1.9260e-06      0.9985   
  1.9270e-06      0.9982   
  1.9280e-06      0.9978   
  1.9290e-06      0.9975   
  1.9300e-06      0.9971   
  1.9310e-06      0.9968   
  1.9320e-06      0.9964   
  1.9330e-06      0.9961   
  1.9340e-06      0.9958   
  1.9350e-06      0.9955   
  1.9360e-06      0.9952   
  1.9370e-06      0.9949   
  1.9380e-06      0.9946   
  1.9390e-06      0.9943   
  1.9400e-06      0.9940   
  1.9410e-06      0.9938   
  1.9420e-06      0.9935   
  1.9430e-06      0.9933   
  1.9440e-06      0.9931   
  1.9450e-06      0.9929   
  1.9460e-06      0.9927   
  1.9470e-06      0.9925   
  1.9480e-06      0.9923   
  1.9490e-06      0.9921   
  1.9500e-06      0.9918   
  1.9510e-06      0.9925   
  1.9520e-06      0.9934   
  1.9530e-06      0.9943   
  1.9540e-06      0.9951   
  1.9550e-06      0.9960   
  1.9560e-06      0.9969   
  1.9570e-06      0.9978   
  1.9580e-06      0.9987   
  1.9590e-06      0.9996   
  1.9600e-06      1.0005   
  1.9610e-06      1.0013   
  1.9620e-06      1.0022   
  1.9630e-06      1.0031   
  1.9640e-06      1.0040   
  1.9650e-06      1.0049   
  1.9660e-06      1.0077   
  1.9670e-06      1.0107   
  1.9680e-06      1.0137   
  1.9690e-06      1.0176   
  1.9700e-06      1.0218   
  1.9710e-06      1.0261   
  1.9720e-06      1.0298   
  1.9730e-06      1.0336   
  1.9740e-06      1.0373   
  1.9750e-06      1.0411   
  1.9760e-06      1.0448   
  1.9770e-06      1.0486   
  1.9780e-06      1.0523   
  1.9790e-06      1.0561   
  1.9800e-06      1.0594   
  1.9810e-06      1.0581   
  1.9820e-06      1.0568   
  1.9830e-06      1.0556   
  1.9840e-06      1.0543   
  1.9850e-06      1.0530   
  1.9860e-06      1.0518   
  1.9870e-06      1.0458   
  1.9880e-06      1.0370   
  1.9890e-06      1.0282   
  1.9900e-06      1.0194   
  1.9910e-06      1.0106   
  1.9920e-06      1.0018   
  1.9930e-06      0.9930   
  1.9940e-06      0.9843   
  1.9950e-06      0.9755   
  1.9960e-06      0.9634   
  1.9970e-06      0.9467   
  1.9980e-06      0.9300   
  1.9990e-06      0.9133   
  2.0000e-06      0.8966   
  2.0010e-06      0.8800   
  2.0020e-06      0.8633   
  2.0030e-06      0.8466   
  2.0040e-06      0.8292   
  2.0050e-06      0.8024   
  2.0060e-06      0.7755   
  2.0070e-06      0.7487   
  2.0080e-06      0.7219   
  2.0090e-06      0.6951   
  2.0100e-06      0.6683   
  2.0110e-06      0.6415   
  2.0120e-06      0.6146   
  2.0130e-06      0.5878   
  2.0140e-06      0.5610   
  2.0150e-06      0.5342   
  2.0160e-06      0.5074   
  2.0170e-06      0.4806   
  2.0180e-06      0.4537   
  2.0190e-06      0.4269   
  2.0200e-06      0.4001   
  2.0210e-06      0.3744   
  2.0220e-06      0.3544   
  2.0230e-06      0.3345   
  2.0240e-06      0.3145   
  2.0250e-06      0.2946   
  2.0260e-06      0.2746   
  2.0270e-06      0.2547   
  2.0280e-06      0.2348   
  2.0290e-06      0.2148   
  2.0300e-06      0.1949   
  2.0310e-06      0.1749   
  2.0320e-06      0.1550   
  2.0330e-06      0.1350   
  2.0340e-06      0.1151   
  2.0350e-06      0.1080   
  2.0360e-06      0.1013   
  2.0370e-06    9.455e-02  
  2.0380e-06    8.781e-02  
  2.0390e-06    8.107e-02  
  2.0400e-06    7.432e-02  
  2.0410e-06    6.758e-02  
  2.0420e-06    6.084e-02  
  2.0430e-06    5.424e-02  
  2.0440e-06    5.360e-02  
  2.0450e-06    5.296e-02  
  2.0460e-06    5.233e-02  
  2.0470e-06    5.169e-02  
  2.0480e-06    5.105e-02  
  2.0490e-06    5.041e-02  
  2.0500e-06    4.977e-02  
  2.0510e-06    4.913e-02  
  2.0520e-06    4.850e-02  
  2.0530e-06    4.786e-02  
  2.0540e-06    4.722e-02  
  2.0550e-06    4.654e-02  
  2.0560e-06    4.540e-02  
  2.0570e-06    4.426e-02  
  2.0580e-06    4.320e-02  
  2.0590e-06    4.218e-02  
  2.0600e-06    4.117e-02  
  2.0610e-06    4.031e-02  
  2.0620e-06    3.967e-02  
  2.0630e-06    3.902e-02  
  2.0640e-06    3.837e-02  
  2.0650e-06    3.772e-02  
  2.0660e-06    3.707e-02  
  2.0670e-06    3.642e-02  
  2.0680e-06    3.577e-02  
  2.0690e-06    3.512e-02  
  2.0700e-06    3.448e-02  
  2.0710e-06    3.371e-02  
  2.0720e-06    3.273e-02  
  2.0730e-06    3.174e-02  
  2.0740e-06    3.075e-02  
  2.0750e-06    2.976e-02  
  2.0760e-06    2.878e-02  
  2.0770e-06    2.779e-02  
  2.0780e-06    2.680e-02  
  2.0790e-06    2.582e-02  
  2.0800e-06    2.492e-02  
  2.0810e-06    2.402e-02  
  2.0820e-06    2.313e-02  
  2.0830e-06    2.223e-02  
  2.0840e-06    2.133e-02  
  2.0850e-06    2.044e-02  
  2.0860e-06    1.954e-02  
  2.0870e-06    1.865e-02  
  2.0880e-06    1.775e-02  
  2.0890e-06    1.709e-02  
  2.0900e-06    1.696e-02  
  2.0910e-06    1.684e-02  
  2.0920e-06    1.671e-02  
  2.0930e-06    1.658e-02  
  2.0940e-06    1.645e-02  
  2.0950e-06    1.632e-02  
  2.0960e-06    1.619e-02  
  2.0970e-06    1.609e-02  
  2.0980e-06    1.616e-02  
  2.0990e-06    1.624e-02  
  2.1000e-06    1.631e-02  
  2.1010e-06    1.638e-02  
  2.1020e-06    1.646e-02  
  2.1030e-06    1.653e-02  
  2.1040e-06    1.661e-02  
  2.1050e-06    1.668e-02  
  2.1060e-06    1.675e-02  
  2.1070e-06    1.683e-02  
  2.1080e-06    1.690e-02  
  2.1090e-06    1.697e-02  
  2.1100e-06    1.701e-02  
  2.1110e-06    1.663e-02  
  2.1120e-06    1.625e-02  
  2.1130e-06    1.588e-02  
  2.1140e-06    1.550e-02  
  2.1150e-06    1.512e-02  
  2.1160e-06    1.475e-02  
  2.1170e-06    1.437e-02  
  2.1180e-06    1.407e-02  
  2.1190e-06    1.384e-02  
  2.1200e-06    1.361e-02  
  2.1210e-06    1.338e-02  
  2.1220e-06    1.315e-02  
  2.1230e-06    1.292e-02  
  2.1240e-06    1.269e-02  
  2.1250e-06    1.246e-02  
  2.1260e-06    1.223e-02  
  2.1270e-06    1.200e-02  
  2.1280e-06    1.179e-02  
  2.1290e-06    1.165e-02  
  2.1300e-06    1.152e-02  
  2.1310e-06    1.139e-02  
  2.1320e-06    1.125e-02  
  2.1330e-06    1.112e-02  
  2.1340e-06    1.099e-02  
  2.1350e-06    1.085e-02  
  2.1360e-06    1.072e-02  
  2.1370e-06    1.059e-02  
  2.1380e-06    1.045e-02  
  2.1390e-06    1.032e-02  
  2.1400e-06    1.019e-02  
  2.1410e-06    1.005e-02  
  2.1420e-06    9.919e-03  
  2.1430e-06    9.800e-03  
  2.1440e-06    9.731e-03  
  2.1450e-06    9.662e-03  
  2.1460e-06    9.593e-03  
  2.1470e-06    9.523e-03  
  2.1480e-06    9.454e-03  
  2.1490e-06    9.390e-03  
  2.1500e-06    9.357e-03  
  2.1510e-06    9.323e-03  
  2.1520e-06    9.290e-03  
  2.1530e-06    9.256e-03  
  2.1540e-06    9.223e-03  
  2.1550e-06    9.189e-03  
  2.1560e-06    9.156e-03  
  2.1570e-06    9.122e-03  
  2.1580e-06    9.090e-03  
  2.1590e-06    9.064e-03  
  2.1600e-06    9.037e-03  
  2.1610e-06    9.010e-03  
  2.1620e-06    8.983e-03  
  2.1630e-06    8.956e-03  
  2.1640e-06    8.930e-03  
  2.1650e-06    8.888e-03  
  2.1660e-06    8.838e-03  
  2.1670e-06    8.788e-03  
  2.1680e-06    8.738e-03  
  2.1690e-06    8.688e-03  
  2.1700e-06    8.638e-03  
  2.1710e-06    8.588e-03  
  2.1720e-06    8.538e-03  
  2.1730e-06    8.489e-03  
  2.1740e-06    8.455e-03  
  2.1750e-06    8.434e-03  
  2.1760e-06    8.412e-03  
  2.1770e-06    8.391e-03  
  2.1780e-06    8.370e-03  
  2.1790e-06    8.348e-03  
  2.1800e-06    8.327e-03  
  2.1810e-06    8.305e-03  
  2.1820e-06    8.286e-03  
  2.1830e-06    8.276e-03  
  2.1840e-06    8.267e-03  
  2.1850e-06    8.257e-03  
  2.1860e-06    8.247e-03  
  2.1870e-06    8.238e-03  
  2.1880e-06    8.228e-03  
  2.1890e-06    8.218e-03  
  2.1900e-06    8.208e-03  
  2.1910e-06    8.199e-03  
  2.1920e-06    8.189e-03  
  2.1930e-06    8.179e-03  
  2.1940e-06    8.170e-03  
  2.1950e-06    8.160e-03  
  2.1960e-06    8.150e-03  
  2.1970e-06    8.141e-03  
  2.1980e-06    8.131e-03  
  2.1990e-06    8.122e-03  
  2.2000e-06    8.116e-03  
  2.2010e-06    8.109e-03  
  2.2020e-06    8.103e-03  
  2.2030e-06    8.096e-03  
  2.2040e-06    8.090e-03  
  2.2050e-06    8.084e-03  
  2.2060e-06    8.077e-03  
  2.2070e-06    8.071e-03  
  2.2080e-06    8.064e-03  
  2.2090e-06    8.058e-03  
  2.2100e-06    8.051e-03  
  2.2110e-06    8.045e-03  
  2.2120e-06    8.039e-03  
  2.2130e-06    8.038e-03  
  2.2140e-06    8.036e-03  
  2.2150e-06    8.034e-03  
  2.2160e-06    8.032e-03  
  2.2170e-06    8.030e-03  
  2.2180e-06    8.029e-03  
  2.2190e-06    8.027e-03  
  2.2200e-06    8.025e-03  
  2.2210e-06    8.023e-03  
  2.2220e-06    8.017e-03  
  2.2230e-06    8.012e-03  
  2.2240e-06    8.007e-03  
  2.2250e-06    8.002e-03  
  2.2260e-06    7.996e-03  
  2.2270e-06    7.991e-03  
  2.2280e-06    7.986e-03  
  2.2290e-06    7.980e-03  
  2.2300e-06    7.975e-03  
  2.2310e-06    7.970e-03  
  2.2320e-06    7.965e-03  
  2.2330e-06    7.960e-03  
  2.2340e-06    7.960e-03  
  2.2350e-06    7.959e-03  
  2.2360e-06    7.958e-03  
  2.2370e-06    7.958e-03  
  2.2380e-06    7.957e-03  
  2.2390e-06    7.956e-03  
  2.2400e-06    7.955e-03  
  2.2410e-06    7.955e-03  
  2.2420e-06    7.954e-03  
  2.2430e-06    7.953e-03  
  2.2440e-06    7.952e-03  
  2.2450e-06    7.951e-03  
  2.2460e-06    7.950e-03  
  2.2470e-06    7.949e-03  
  2.2480e-06    7.948e-03  
  2.2490e-06    7.947e-03  
  2.2500e-06    7.946e-03  
  2.2510e-06    7.945e-03  
  2.2520e-06    7.944e-03  
  2.2530e-06    7.943e-03  
  2.2540e-06    7.942e-03  
  2.2550e-06    7.941e-03  
  2.2560e-06    7.939e-03  
  2.2570e-06    7.938e-03  
  2.2580e-06    7.937e-03  
  2.2590e-06    7.936e-03  
  2.2600e-06    7.936e-03  
  2.2610e-06    7.935e-03  
  2.2620e-06    7.934e-03  
  2.2630e-06    7.933e-03  
  2.2640e-06    7.932e-03  
  2.2650e-06    7.931e-03  
  2.2660e-06    7.930e-03  
  2.2670e-06    7.930e-03  
  2.2680e-06    7.929e-03  
  2.2690e-06    7.928e-03  
  2.2700e-06    7.928e-03  
  2.2710e-06    7.927e-03  
  2.2720e-06    7.926e-03  
  2.2730e-06    7.926e-03  
  2.2740e-06    7.925e-03  
  2.2750e-06    7.924e-03  
  2.2760e-06    7.924e-03  
  2.2770e-06    7.923e-03  
  2.2780e-06    7.923e-03  
  2.2790e-06    7.922e-03  
  2.2800e-06    7.922e-03  
  2.2810e-06    7.921e-03  
  2.2820e-06    7.921e-03  
  2.2830e-06    7.920e-03  
  2.2840e-06    7.920e-03  
  2.2850e-06    7.921e-03  
  2.2860e-06    7.921e-03  
  2.2870e-06    7.921e-03  
  2.2880e-06    7.922e-03  
  2.2890e-06    7.922e-03  
  2.2900e-06    7.923e-03  
  2.2910e-06    7.923e-03  
  2.2920e-06    7.922e-03  
  2.2930e-06    7.922e-03  
  2.2940e-06    7.921e-03  
  2.2950e-06    7.921e-03  
  2.2960e-06    7.920e-03  
  2.2970e-06    7.920e-03  
  2.2980e-06    7.919e-03  
  2.2990e-06    7.919e-03  
  2.3000e-06    7.919e-03  
  2.3010e-06    7.918e-03  
  2.3020e-06    7.918e-03  
  2.3030e-06    7.917e-03  
  2.3040e-06    7.917e-03  
  2.3050e-06    7.916e-03  
  2.3060e-06    7.916e-03  
  2.3070e-06    7.915e-03  
  2.3080e-06    7.915e-03  
  2.3090e-06    7.914e-03  
  2.3100e-06    7.914e-03  
  2.3110e-06    7.913e-03  
  2.3120e-06    7.913e-03  
  2.3130e-06    7.912e-03  
  2.3140e-06    7.913e-03  
  2.3150e-06    7.914e-03  
  2.3160e-06    7.915e-03  
  2.3170e-06    7.915e-03  
  2.3180e-06    7.916e-03  
  2.3190e-06    7.917e-03  
  2.3200e-06    7.918e-03  
  2.3210e-06    7.919e-03  
  2.3220e-06    7.919e-03  
  2.3230e-06    7.920e-03  
  2.3240e-06    7.921e-03  
  2.3250e-06    7.922e-03  
  2.3260e-06    7.923e-03  
  2.3270e-06    7.922e-03  
  2.3280e-06    7.917e-03  
  2.3290e-06    7.913e-03  
  2.3300e-06    7.908e-03  
  2.3310e-06    7.903e-03  
  2.3320e-06    7.899e-03  
  2.3330e-06    7.894e-03  
  2.3340e-06    7.890e-03  
  2.3350e-06    7.886e-03  
  2.3360e-06    7.887e-03  
  2.3370e-06    7.888e-03  
  2.3380e-06    7.888e-03  
  2.3390e-06    7.889e-03  
  2.3400e-06    7.889e-03  
  2.3410e-06    7.890e-03  
  2.3420e-06    7.891e-03  
  2.3430e-06    7.891e-03  
  2.3440e-06    7.892e-03  
  2.3450e-06    7.893e-03  
  2.3460e-06    7.893e-03  
  2.3470e-06    7.894e-03  
  2.3480e-06    7.895e-03  
  2.3490e-06    7.902e-03  
  2.3500e-06    7.910e-03  
  2.3510e-06    7.918e-03  
  2.3520e-06    7.926e-03  
  2.3530e-06    7.934e-03  
  2.3540e-06    7.942e-03  
  2.3550e-06    7.950e-03  
  2.3560e-06    7.957e-03  
  2.3570e-06    7.956e-03  
  2.3580e-06    7.954e-03  
  2.3590e-06    7.952e-03  
  2.3600e-06    7.949e-03  
  2.3610e-06    7.947e-03  
  2.3620e-06    7.944e-03  
  2.3630e-06    7.942e-03  
  2.3640e-06    7.939e-03  
  2.3650e-06    7.937e-03  
  2.3660e-06    7.935e-03  
  2.3670e-06    7.937e-03  
  2.3680e-06    7.944e-03  
  2.3690e-06    7.952e-03  
  2.3700e-06    7.960e-03  
  2.3710e-06    7.968e-03  
  2.3720e-06    7.976e-03  
  2.3730e-06    7.984e-03  
  2.3740e-06    7.992e-03  
  2.3750e-06    7.999e-03  
  2.3760e-06    8.007e-03  
  2.3770e-06    8.015e-03  
  2.3780e-06    8.023e-03  
  2.3790e-06    8.031e-03  
  2.3800e-06    8.039e-03  
  2.3810e-06    8.047e-03  
  2.3820e-06    8.057e-03  
  2.3830e-06    8.067e-03  
  2.3840e-06    8.077e-03  
  2.3850e-06    8.087e-03  
  2.3860e-06    8.097e-03  
  2.3870e-06    8.107e-03  
  2.3880e-06    8.117e-03  
  2.3890e-06    8.127e-03  
  2.3900e-06    8.050e-03  
  2.3910e-06    7.968e-03  
  2.3920e-06    7.886e-03  
  2.3930e-06    7.805e-03  
  2.3940e-06    7.723e-03  
  2.3950e-06    7.641e-03  
  2.3960e-06    7.559e-03  
  2.3970e-06    7.477e-03  
  2.3980e-06    7.395e-03  
  2.3990e-06    7.314e-03  
  2.4000e-06    7.249e-03  
  2.4010e-06    7.213e-03  
  2.4020e-06    7.178e-03  
  2.4030e-06    7.142e-03  
  2.4040e-06    7.106e-03  
  2.4050e-06    7.070e-03  
  2.4060e-06    7.035e-03  
  2.4070e-06    6.999e-03  
  2.4080e-06    6.963e-03  
  2.4090e-06    6.995e-03  
  2.4100e-06    7.053e-03  
  2.4110e-06    7.110e-03  
  2.4120e-06    7.168e-03  
  2.4130e-06    7.225e-03  
  2.4140e-06    7.282e-03  
  2.4150e-06    7.340e-03  
  2.4160e-06    7.397e-03  
  2.4170e-06    7.455e-03  
  2.4180e-06    7.512e-03  
  2.4190e-06    7.570e-03  
  2.4200e-06    7.602e-03  
  2.4210e-06    7.611e-03  
  2.4220e-06    7.617e-03  
  2.4230e-06    7.563e-03  
  2.4240e-06    7.509e-03  
  2.4250e-06    7.541e-03  
  2.4260e-06    7.753e-03  
  2.4270e-06    7.966e-03  
  2.4280e-06    8.178e-03  
  2.4290e-06    8.390e-03  
  2.4300e-06    8.603e-03  
  2.4310e-06    8.815e-03  
  2.4320e-06    9.027e-03  
  2.4330e-06    9.240e-03  
  2.4340e-06    9.632e-03  
  2.4350e-06    1.016e-02  
  2.4360e-06    1.068e-02  
  2.4370e-06    1.121e-02  
  2.4380e-06    1.173e-02  
  2.4390e-06    1.225e-02  
  2.4400e-06    1.278e-02  
  2.4410e-06    1.331e-02  
  2.4420e-06    1.385e-02  
  2.4430e-06    1.440e-02  
  2.4440e-06    1.494e-02  
  2.4450e-06    1.549e-02  
  2.4460e-06    1.603e-02  
  2.4470e-06    1.657e-02  
  2.4480e-06    1.712e-02  
  2.4490e-06    1.766e-02  
  2.4500e-06    1.713e-02  
  2.4510e-06    1.590e-02  
  2.4520e-06    1.467e-02  
  2.4530e-06    1.344e-02  
  2.4540e-06    1.221e-02  
  2.4550e-06    1.098e-02  
  2.4560e-06    9.753e-03  
  2.4570e-06    8.522e-03  
  2.4580e-06    7.292e-03  
  2.4590e-06    6.062e-03  
  2.4600e-06    4.832e-03  
  2.4610e-06    3.602e-03  
  2.4620e-06    1.273e-03  
  2.4630e-06   -1.061e-03  
  2.4640e-06   -3.395e-03  
  2.4650e-06   -5.729e-03  
  2.4660e-06   -8.063e-03  
  2.4670e-06   -1.040e-02  
  2.4680e-06   -1.273e-02  
  2.4690e-06   -1.488e-02  
  2.4700e-06   -1.700e-02  
  2.4710e-06   -1.911e-02  
  2.4720e-06   -2.122e-02  
  2.4730e-06   -2.334e-02  
  2.4740e-06   -2.545e-02  
  2.4750e-06   -2.756e-02  
  2.4760e-06   -2.968e-02  
  2.4770e-06   -3.179e-02  
  2.4780e-06   -3.390e-02  
  2.4790e-06   -3.602e-02  
  2.4800e-06   -3.722e-02  
  2.4810e-06   -3.839e-02  
  2.4820e-06   -3.956e-02  
  2.4830e-06   -4.072e-02  
  2.4840e-06   -4.189e-02  
  2.4850e-06   -4.306e-02  
  2.4860e-06   -4.422e-02  
  2.4870e-06   -4.539e-02  
  2.4880e-06   -4.656e-02  
  2.4890e-06   -4.773e-02  
  2.4900e-06   -4.889e-02  
  2.4910e-06   -5.006e-02  
  2.4920e-06   -3.921e-02  
  2.4930e-06   -2.402e-02  
  2.4940e-06   -8.835e-03  
  2.4950e-06    6.351e-03  
  2.4960e-06    2.154e-02  
  2.4970e-06    3.672e-02  
  2.4980e-06    5.191e-02  
  2.4990e-06    6.710e-02  
  2.5000e-06    8.228e-02  
  2.5010e-06    9.747e-02  
  2.5020e-06      0.1127   
  2.5030e-06      0.1278   
  2.5040e-06      0.1430   
  2.5050e-06      0.1582   
  2.5060e-06      0.1836   
  2.5070e-06      0.2098   
  2.5080e-06      0.2345   
  2.5090e-06      0.2591   
  2.5100e-06      0.2829   
  2.5110e-06      0.3047   
  2.5120e-06      0.3265   
  2.5130e-06      0.3482   
  2.5140e-06      0.3700   
  2.5150e-06      0.3918   
  2.5160e-06      0.4136   
  2.5170e-06      0.4354   
  2.5180e-06      0.4534   
  2.5190e-06      0.4699   
  2.5200e-06      0.4865   
  2.5210e-06      0.5030   
  2.5220e-06      0.5196   
  2.5230e-06      0.5361   
  2.5240e-06      0.5527   
  2.5250e-06      0.5693   
  2.5260e-06      0.5858   
  2.5270e-06      0.6019   
  2.5280e-06      0.6133   
  2.5290e-06      0.6248   
  2.5300e-06      0.6362   
  2.5310e-06      0.6477   
  2.5320e-06      0.6591   
  2.5330e-06      0.6705   
  2.5340e-06      0.6820   
  2.5350e-06      0.6934   
  2.5360e-06      0.7048   
  2.5370e-06      0.7138   
  2.5380e-06      0.7228   
  2.5390e-06      0.7318   
  2.5400e-06      0.7409   
  2.5410e-06      0.7499   
  2.5420e-06      0.7589   
  2.5430e-06      0.7679   
  2.5440e-06      0.7769   
  2.5450e-06      0.7859   
  2.5460e-06      0.7949   
  2.5470e-06      0.8040   
  2.5480e-06      0.8130   
  2.5490e-06      0.8208   
  2.5500e-06      0.8236   
  2.5510e-06      0.8264   
  2.5520e-06      0.8293   
  2.5530e-06      0.8321   
  2.5540e-06      0.8349   
  2.5550e-06      0.8378   
  2.5560e-06      0.8406   
  2.5570e-06      0.8434   
  2.5580e-06      0.8463   
  2.5590e-06      0.8491   
  2.5600e-06      0.8519   
  2.5610e-06      0.8548   
  2.5620e-06      0.8576   
  2.5630e-06      0.8605   
  2.5640e-06      0.8633   
  2.5650e-06      0.8662   
  2.5660e-06      0.8690   
  2.5670e-06      0.8719   
  2.5680e-06      0.8748   
  2.5690e-06      0.8776   
  2.5700e-06      0.8805   
  2.5710e-06      0.8842   
  2.5720e-06      0.8880   
  2.5730e-06      0.8918   
  2.5740e-06      0.8956   
  2.5750e-06      0.8994   
  2.5760e-06      0.9033   
  2.5770e-06      0.9071   
  2.5780e-06      0.9109   
  2.5790e-06      0.9147   
  2.5800e-06      0.9185   
  2.5810e-06      0.9224   
  2.5820e-06      0.9262   
  2.5830e-06      0.9300   
  2.5840e-06      0.9334   
  2.5850e-06      0.9358   
  2.5860e-06      0.9382   
  2.5870e-06      0.9405   
  2.5880e-06      0.9429   
  2.5890e-06      0.9453   
  2.5900e-06      0.9477   
  2.5910e-06      0.9500   
  2.5920e-06      0.9522   
  2.5930e-06      0.9539   
  2.5940e-06      0.9557   
  2.5950e-06      0.9574   
  2.5960e-06      0.9591   
  2.5970e-06      0.9608   
  2.5980e-06      0.9623   
  2.5990e-06      0.9636   
  2.6000e-06      0.9649   
  2.6010e-06      0.9662   
  2.6020e-06      0.9675   
  2.6030e-06      0.9688   
  2.6040e-06      0.9701   
  2.6050e-06      0.9714   
  2.6060e-06      0.9727   
  2.6070e-06      0.9740   
  2.6080e-06      0.9749   
  2.6090e-06      0.9756   
  2.6100e-06      0.9763   
  2.6110e-06      0.9770   
[...]
  9.3640e-06    7.894e-03  
  9.3650e-06    7.891e-03  
  9.3660e-06    7.888e-03  
  9.3670e-06    7.885e-03  
  9.3680e-06    7.882e-03  
  9.3690e-06    7.879e-03  
  9.3700e-06    7.876e-03  
  9.3710e-06    7.873e-03  
  9.3720e-06    7.876e-03  
  9.3730e-06    7.883e-03  
  9.3740e-06    7.890e-03  
  9.3750e-06    7.897e-03  
  9.3760e-06    7.905e-03  
  9.3770e-06    7.912e-03  
  9.3780e-06    7.919e-03  
  9.3790e-06    7.925e-03  
  9.3800e-06    7.929e-03  
  9.3810e-06    7.932e-03  
  9.3820e-06    7.935e-03  
  9.3830e-06    7.939e-03  
  9.3840e-06    7.942e-03  
  9.3850e-06    7.946e-03  
  9.3860e-06    7.949e-03  
  9.3870e-06    7.952e-03  
  9.3880e-06    7.956e-03  
  9.3890e-06    7.959e-03  
  9.3900e-06    7.960e-03  
  9.3910e-06    7.958e-03  
  9.3920e-06    7.955e-03  
  9.3930e-06    7.952e-03  
  9.3940e-06    7.949e-03  
  9.3950e-06    7.946e-03  
  9.3960e-06    7.943e-03  
  9.3970e-06    7.940e-03  
  9.3980e-06    7.938e-03  
  9.3990e-06    7.935e-03  
  9.4000e-06    7.932e-03  
  9.4010e-06    7.929e-03  
  9.4020e-06    7.939e-03  
  9.4030e-06    7.956e-03  
  9.4040e-06    7.973e-03  
  9.4050e-06    7.991e-03  
  9.4060e-06    8.008e-03  
  9.4070e-06    8.025e-03  
  9.4080e-06    8.042e-03  
  9.4090e-06    8.059e-03  
  9.4100e-06    8.076e-03  
  9.4110e-06    8.093e-03  
  9.4120e-06    8.111e-03  
  9.4130e-06    8.128e-03  
  9.4140e-06    8.145e-03  
  9.4150e-06    8.153e-03  
  9.4160e-06    8.103e-03  
  9.4170e-06    8.053e-03  
  9.4180e-06    8.002e-03  
  9.4190e-06    7.952e-03  
  9.4200e-06    7.902e-03  
  9.4210e-06    7.852e-03  
  9.4220e-06    7.802e-03  
  9.4230e-06    7.749e-03  
  9.4240e-06    7.685e-03  
  9.4250e-06    7.621e-03  
  9.4260e-06    7.557e-03  
  9.4270e-06    7.493e-03  
  9.4280e-06    7.429e-03  
  9.4290e-06    7.366e-03  
  9.4300e-06    7.302e-03  
  9.4310e-06    7.238e-03  
  9.4320e-06    7.174e-03  
  9.4330e-06    7.110e-03  
  9.4340e-06    7.046e-03  
  9.4350e-06    6.982e-03  
  9.4360e-06    6.918e-03  
  9.4370e-06    6.951e-03  
  9.4380e-06    7.000e-03  
  9.4390e-06    7.050e-03  
  9.4400e-06    7.099e-03  
  9.4410e-06    7.148e-03  
  9.4420e-06    7.198e-03  
  9.4430e-06    7.247e-03  
  9.4440e-06    7.296e-03  
  9.4450e-06    7.335e-03  
  9.4460e-06    7.370e-03  
  9.4470e-06    7.404e-03  
  9.4480e-06    7.439e-03  
  9.4490e-06    7.474e-03  
  9.4500e-06    7.509e-03  
  9.4510e-06    7.544e-03  
  9.4520e-06    7.578e-03  
  9.4530e-06    7.613e-03  
  9.4540e-06    7.648e-03  
  9.4550e-06    7.763e-03  
  9.4560e-06    8.047e-03  
  9.4570e-06    8.331e-03  
  9.4580e-06    8.615e-03  
  9.4590e-06    8.898e-03  
  9.4600e-06    9.182e-03  
  9.4610e-06    9.466e-03  
  9.4620e-06    9.750e-03  
  9.4630e-06    1.003e-02  
  9.4640e-06    1.032e-02  
  9.4650e-06    1.060e-02  
  9.4660e-06    1.089e-02  
  9.4670e-06    1.117e-02  
  9.4680e-06    1.145e-02  
  9.4690e-06    1.186e-02  
  9.4700e-06    1.253e-02  
  9.4710e-06    1.320e-02  
  9.4720e-06    1.387e-02  
  9.4730e-06    1.455e-02  
  9.4740e-06    1.522e-02  
  9.4750e-06    1.589e-02  
  9.4760e-06    1.656e-02  
  9.4770e-06    1.723e-02  
  9.4780e-06    1.664e-02  
  9.4790e-06    1.581e-02  
  9.4800e-06    1.499e-02  
  9.4810e-06    1.416e-02  
  9.4820e-06    1.334e-02  
  9.4830e-06    1.251e-02  
  9.4840e-06    1.169e-02  
  9.4850e-06    1.086e-02  
  9.4860e-06    1.004e-02  
  9.4870e-06    9.215e-03  
  9.4880e-06    8.018e-03  
  9.4890e-06    5.792e-03  
  9.4900e-06    3.567e-03  
  9.4910e-06    1.341e-03  
  9.4920e-06   -8.841e-04  
  9.4930e-06   -3.109e-03  
  9.4940e-06   -5.335e-03  
  9.4950e-06   -7.560e-03  
  9.4960e-06   -9.786e-03  
  9.4970e-06   -1.195e-02  
  9.4980e-06   -1.408e-02  
  9.4990e-06   -1.620e-02  
  9.5000e-06   -1.833e-02  
  9.5010e-06   -2.046e-02  
  9.5020e-06   -2.258e-02  
  9.5030e-06   -2.471e-02  
  9.5040e-06   -2.684e-02  
  9.5050e-06   -2.896e-02  
  9.5060e-06   -3.109e-02  
  9.5070e-06   -3.322e-02  
  9.5080e-06   -3.548e-02  
  9.5090e-06   -3.794e-02  
  9.5100e-06   -4.040e-02  
  9.5110e-06   -4.355e-02  
  9.5120e-06   -4.673e-02  
  9.5130e-06   -4.912e-02  
  9.5140e-06   -4.862e-02  
  9.5150e-06   -4.812e-02  
  9.5160e-06   -4.763e-02  
  9.5170e-06   -4.713e-02  
  9.5180e-06   -4.663e-02  
  9.5190e-06   -4.614e-02  
  9.5200e-06   -4.564e-02  
  9.5210e-06   -4.514e-02  
  9.5220e-06   -4.012e-02  
  9.5230e-06   -2.999e-02  
  9.5240e-06   -1.987e-02  
  9.5250e-06   -9.744e-03  
  9.5260e-06    3.811e-04  
  9.5270e-06    1.051e-02  
  9.5280e-06    2.063e-02  
  9.5290e-06    3.364e-02  
  9.5300e-06    5.752e-02  
  9.5310e-06    8.140e-02  
  9.5320e-06      0.1053   
  9.5330e-06      0.1292   
  9.5340e-06      0.1530   
  9.5350e-06      0.1769   
  9.5360e-06      0.2008   
  9.5370e-06      0.2247   
  9.5380e-06      0.2473   
  9.5390e-06      0.2688   
  9.5400e-06      0.2902   
  9.5410e-06      0.3117   
  9.5420e-06      0.3331   
  9.5430e-06      0.3546   
  9.5440e-06      0.3760   
  9.5450e-06      0.3975   
  9.5460e-06      0.4189   
  9.5470e-06      0.4404   
  9.5480e-06      0.4618   
  9.5490e-06      0.4833   
  9.5500e-06      0.4999   
  9.5510e-06      0.5159   
  9.5520e-06      0.5319   
  9.5530e-06      0.5479   
  9.5540e-06      0.5639   
  9.5550e-06      0.5799   
  9.5560e-06      0.5959   
  9.5570e-06      0.6085   
  9.5580e-06      0.6197   
  9.5590e-06      0.6310   
  9.5600e-06      0.6422   
  9.5610e-06      0.6535   
  9.5620e-06      0.6647   
  9.5630e-06      0.6760   
  9.5640e-06      0.6872   
  9.5650e-06      0.6985   
  9.5660e-06      0.7097   
  9.5670e-06      0.7210   
  9.5680e-06      0.7299   
  9.5690e-06      0.7383   
  9.5700e-06      0.7468   
  9.5710e-06      0.7553   
  9.5720e-06      0.7638   
  9.5730e-06      0.7722   
  9.5740e-06      0.7807   
  9.5750e-06      0.7892   
  9.5760e-06      0.7977   
  9.5770e-06      0.8061   
  9.5780e-06      0.8146   
  9.5790e-06      0.8231   
  9.5800e-06      0.8279   
  9.5810e-06      0.8304   
  9.5820e-06      0.8330   
  9.5830e-06      0.8356   
  9.5840e-06      0.8382   
  9.5850e-06      0.8408   
  9.5860e-06      0.8433   
  9.5870e-06      0.8459   
  9.5880e-06      0.8485   
  9.5890e-06      0.8511   
  9.5900e-06      0.8536   
  9.5910e-06      0.8562   
  9.5920e-06      0.8588   
  9.5930e-06      0.8614   
  9.5940e-06      0.8643   
  9.5950e-06      0.8672   
  9.5960e-06      0.8704   
  9.5970e-06      0.8737   
  9.5980e-06      0.8771   
  9.5990e-06      0.8810   
  9.6000e-06      0.8849   
  9.6010e-06      0.8888   
  9.6020e-06      0.8927   
  9.6030e-06      0.8966   
  9.6040e-06      0.9005   
  9.6050e-06      0.9043   
  9.6060e-06      0.9079   
  9.6070e-06      0.9112   
  9.6080e-06      0.9145   
  9.6090e-06      0.9177   
  9.6100e-06      0.9210   
  9.6110e-06      0.9243   
  9.6120e-06      0.9276   
  9.6130e-06      0.9309   
  9.6140e-06      0.9342   
  9.6150e-06      0.9375   
  9.6160e-06      0.9396   
  9.6170e-06      0.9418   
  9.6180e-06      0.9439   
  9.6190e-06      0.9460   
  9.6200e-06      0.9481   
  9.6210e-06      0.9503   
  9.6220e-06      0.9524   
  9.6230e-06      0.9545   
  9.6240e-06      0.9566   
  9.6250e-06      0.9581   
  9.6260e-06      0.9595   
  9.6270e-06      0.9609   
  9.6280e-06      0.9623   
  9.6290e-06      0.9637   
  9.6300e-06      0.9651   
  9.6310e-06      0.9665   
  9.6320e-06      0.9679   
  9.6330e-06      0.9693   
  9.6340e-06      0.9707   
  9.6350e-06      0.9721   
  9.6360e-06      0.9735   
  9.6370e-06      0.9748   
  9.6380e-06      0.9755   
  9.6390e-06      0.9762   
  9.6400e-06      0.9769   
  9.6410e-06      0.9775   
  9.6420e-06      0.9782   
  9.6430e-06      0.9789   
  9.6440e-06      0.9796   
  9.6450e-06      0.9803   
  9.6460e-06      0.9809   
  9.6470e-06      0.9816   
  9.6480e-06      0.9823   
  9.6490e-06      0.9830   
  9.6500e-06      0.9836   
  9.6510e-06      0.9843   
  9.6520e-06      0.9849   
  9.6530e-06      0.9856   
  9.6540e-06      0.9862   
  9.6550e-06      0.9868   
  9.6560e-06      0.9875   
  9.6570e-06      0.9881   
  9.6580e-06      0.9887   
  9.6590e-06      0.9892   
  9.6600e-06      0.9896   
  9.6610e-06      0.9900   
  9.6620e-06      0.9904   
  9.6630e-06      0.9908   
  9.6640e-06      0.9912   
  9.6650e-06      0.9916   
  9.6660e-06      0.9920   
  9.6670e-06      0.9923   
  9.6680e-06      0.9927   
  9.6690e-06      0.9931   
  9.6700e-06      0.9935   
  9.6710e-06      0.9939   
  9.6720e-06      0.9943   
  9.6730e-06      0.9944   
  9.6740e-06      0.9945   
  9.6750e-06      0.9947   
  9.6760e-06      0.9948   
  9.6770e-06      0.9950   
  9.6780e-06      0.9951   
  9.6790e-06      0.9952   
  9.6800e-06      0.9954   
  9.6810e-06      0.9955   
  9.6820e-06      0.9956   
  9.6830e-06      0.9958   
  9.6840e-06      0.9959   
  9.6850e-06      0.9961   
  9.6860e-06      0.9962   
  9.6870e-06      0.9963   
  9.6880e-06      0.9964   
  9.6890e-06      0.9965   
  9.6900e-06      0.9966   
  9.6910e-06      0.9967   
  9.6920e-06      0.9968   
  9.6930e-06      0.9969   
  9.6940e-06      0.9970   
  9.6950e-06      0.9972   
  9.6960e-06      0.9972   
  9.6970e-06      0.9973   
  9.6980e-06      0.9974   
  9.6990e-06      0.9975   
  9.7000e-06      0.9975   
  9.7010e-06      0.9976   
  9.7020e-06      0.9977   
  9.7030e-06      0.9978   
  9.7040e-06      0.9978   
  9.7050e-06      0.9979   
  9.7060e-06      0.9980   
  9.7070e-06      0.9981   
  9.7080e-06      0.9981   
  9.7090e-06      0.9982   
  9.7100e-06      0.9983   
  9.7110e-06      0.9983   
  9.7120e-06      0.9984   
  9.7130e-06      0.9985   
  9.7140e-06      0.9985   
  9.7150e-06      0.9986   
  9.7160e-06      0.9986   
  9.7170e-06      0.9987   
  9.7180e-06      0.9987   
  9.7190e-06      0.9987   
  9.7200e-06      0.9988   
  9.7210e-06      0.9988   
  9.7220e-06      0.9989   
  9.7230e-06      0.9989   
  9.7240e-06      0.9989   
  9.7250e-06      0.9990   
  9.7260e-06      0.9990   
  9.7270e-06      0.9990   
  9.7280e-06      0.9991   
  9.7290e-06      0.9991   
  9.7300e-06      0.9991   
  9.7310e-06      0.9991   
  9.7320e-06      0.9992   
  9.7330e-06      0.9992   
  9.7340e-06      0.9992   
  9.7350e-06      0.9992   
  9.7360e-06      0.9992   
  9.7370e-06      0.9993   
  9.7380e-06      0.9993   
  9.7390e-06      0.9993   
  9.7400e-06      0.9993   
  9.7410e-06      0.9993   
  9.7420e-06      0.9994   
  9.7430e-06      0.9994   
  9.7440e-06      0.9994   
  9.7450e-06      0.9994   
  9.7460e-06      0.9994   
  9.7470e-06      0.9994   
  9.7480e-06      0.9995   
  9.7490e-06      0.9995   
  9.7500e-06      0.9995   
  9.7510e-06      0.9995   
  9.7520e-06      0.9995   
  9.7530e-06      0.9995   
  9.7540e-06      0.9995   
  9.7550e-06      0.9996   
  9.7560e-06      0.9996   
  9.7570e-06      0.9996   
  9.7580e-06      0.9996   
  9.7590e-06      0.9996   
  9.7600e-06      0.9996   
  9.7610e-06      0.9996   
  9.7620e-06      0.9996   
  9.7630e-06      0.9996   
  9.7640e-06      0.9996   
  9.7650e-06      0.9996   
  9.7660e-06      0.9997   
  9.7670e-06      0.9997   
  9.7680e-06      0.9997   
  9.7690e-06      0.9997   
  9.7700e-06      0.9997   
  9.7710e-06      0.9997   
  9.7720e-06      0.9997   
  9.7730e-06      0.9997   
  9.7740e-06      0.9997   
  9.7750e-06      0.9997   
  9.7760e-06      0.9997   
  9.7770e-06      0.9997   
  9.7780e-06      0.9997   
  9.7790e-06      0.9997   
  9.7800e-06      0.9997   
  9.7810e-06      0.9997   
  9.7820e-06      0.9997   
  9.7830e-06      0.9997   
  9.7840e-06      0.9997   
  9.7850e-06      0.9998   
  9.7860e-06      0.9998   
  9.7870e-06      0.9998   
  9.7880e-06      0.9998   
  9.7890e-06      0.9998   
  9.7900e-06      0.9998   
  9.7910e-06      0.9998   
  9.7920e-06      0.9998   
  9.7930e-06      0.9998   
  9.7940e-06      0.9998   
  9.7950e-06      0.9998   
  9.7960e-06      0.9998   
  9.7970e-06      0.9998   
  9.7980e-06      0.9998   
  9.7990e-06      0.9998   
  9.8000e-06      0.9998   
  9.8010e-06      0.9998   
  9.8020e-06      0.9998   
  9.8030e-06      0.9998   
  9.8040e-06      0.9998   
  9.8050e-06      0.9998   
  9.8060e-06      0.9998   
  9.8070e-06      0.9998   
  9.8080e-06      0.9998   
  9.8090e-06      0.9998   
  9.8100e-06      0.9998   
  9.8110e-06      0.9998   
  9.8120e-06      0.9998   
  9.8130e-06      0.9998   
  9.8140e-06      0.9998   
  9.8150e-06      0.9998   
  9.8160e-06      0.9998   
  9.8170e-06      0.9998   
  9.8180e-06      0.9998   
  9.8190e-06      0.9998   
  9.8200e-06      0.9998   
  9.8210e-06      0.9998   
  9.8220e-06      0.9998   
  9.8230e-06      0.9998   
  9.8240e-06      0.9998   
  9.8250e-06      0.9998   
  9.8260e-06      0.9998   
  9.8270e-06      0.9998   
  9.8280e-06      0.9998   
  9.8290e-06      0.9998   
  9.8300e-06      0.9998   
  9.8310e-06      0.9998   
  9.8320e-06      0.9998   
  9.8330e-06      0.9998   
  9.8340e-06      0.9998   
  9.8350e-06      0.9998   
  9.8360e-06      0.9998   
  9.8370e-06      0.9998   
  9.8380e-06      0.9998   
  9.8390e-06      0.9998   
  9.8400e-06      0.9998   
  9.8410e-06      0.9998   
  9.8420e-06      0.9998   
  9.8430e-06      0.9998   
  9.8440e-06      0.9998   
  9.8450e-06      0.9998   
  9.8460e-06      0.9998   
  9.8470e-06      0.9998   
  9.8480e-06      0.9998   
  9.8490e-06      0.9998   
  9.8500e-06      0.9998   
  9.8510e-06      0.9998   
  9.8520e-06      0.9998   
  9.8530e-06      0.9998   
  9.8540e-06      0.9998   
  9.8550e-06      0.9998   
  9.8560e-06      0.9998   
  9.8570e-06      0.9998   
  9.8580e-06      0.9998   
  9.8590e-06      0.9998   
  9.8600e-06      0.9998   
  9.8610e-06      0.9998   
  9.8620e-06      0.9998   
  9.8630e-06      0.9998   
  9.8640e-06      0.9998   
  9.8650e-06      0.9998   
  9.8660e-06      0.9998   
  9.8670e-06      0.9998   
  9.8680e-06      0.9998   
  9.8690e-06      0.9998   
  9.8700e-06      0.9998   
  9.8710e-06      0.9998   
  9.8720e-06      0.9998   
  9.8730e-06      0.9998   
  9.8740e-06      0.9998   
  9.8750e-06      0.9999   
  9.8760e-06      0.9999   
  9.8770e-06      0.9999   
  9.8780e-06      0.9999   
  9.8790e-06      0.9999   
  9.8800e-06      0.9999   
  9.8810e-06      0.9999   
  9.8820e-06      0.9999   
  9.8830e-06      0.9999   
  9.8840e-06      0.9999   
  9.8850e-06      0.9999   
  9.8860e-06      0.9999   
  9.8870e-06      0.9999   
  9.8880e-06      0.9998   
  9.8890e-06      0.9998   
  9.8900e-06      0.9998   
  9.8910e-06      0.9998   
  9.8920e-06      0.9998   
  9.8930e-06      0.9998   
  9.8940e-06      0.9998   
  9.8950e-06      0.9998   
  9.8960e-06      0.9998   
  9.8970e-06      0.9998   
  9.8980e-06      0.9997   
  9.8990e-06      0.9997   
  9.9000e-06      0.9997   
  9.9010e-06      0.9997   
  9.9020e-06      0.9997   
  9.9030e-06      0.9997   
  9.9040e-06      0.9997   
  9.9050e-06      0.9997   
  9.9060e-06      0.9997   
  9.9070e-06      0.9997   
  9.9080e-06      0.9997   
  9.9090e-06      0.9997   
  9.9100e-06      0.9997   
  9.9110e-06      0.9997   
  9.9120e-06      0.9998   
  9.9130e-06      0.9998   
  9.9140e-06      0.9998   
  9.9150e-06      0.9998   
  9.9160e-06      0.9998   
  9.9170e-06      0.9998   
  9.9180e-06      0.9998   
  9.9190e-06      0.9998   
  9.9200e-06      0.9998   
  9.9210e-06      0.9999   
  9.9220e-06      0.9999   
  9.9230e-06      0.9999   
  9.9240e-06      0.9999   
  9.9250e-06      0.9999   
  9.9260e-06      0.9999   
  9.9270e-06      1.0000   
  9.9280e-06      1.0000   
  9.9290e-06      1.0001   
  9.9300e-06      1.0001   
  9.9310e-06      1.0001   
  9.9320e-06      1.0002   
  9.9330e-06      1.0002   
  9.9340e-06      1.0002   
  9.9350e-06      1.0003   
  9.9360e-06      1.0003   
  9.9370e-06      1.0004   
  9.9380e-06      1.0004   
  9.9390e-06      1.0004   
  9.9400e-06      1.0005   
  9.9410e-06      1.0006   
  9.9420e-06      1.0007   
  9.9430e-06      1.0008   
  9.9440e-06      1.0010   
  9.9450e-06      1.0011   
  9.9460e-06      1.0011   
  9.9470e-06      1.0011   
  9.9480e-06      1.0010   
  9.9490e-06      1.0010   
  9.9500e-06      1.0010   
  9.9510e-06      1.0009   
  9.9520e-06      1.0009   
  9.9530e-06      1.0008   
  9.9540e-06      1.0008   
  9.9550e-06      1.0004   
  9.9560e-06      1.0000   
  9.9570e-06      0.9996   
  9.9580e-06      0.9993   
  9.9590e-06      0.9989   
  9.9600e-06      0.9985   
  9.9610e-06      0.9981   
  9.9620e-06      0.9977   
  9.9630e-06      0.9974   
  9.9640e-06      0.9970   
  9.9650e-06      0.9966   
  9.9660e-06      0.9963   
  9.9670e-06      0.9959   
  9.9680e-06      0.9955   
  9.9690e-06      0.9952   
  9.9700e-06      0.9948   
  9.9710e-06      0.9946   
  9.9720e-06      0.9944   
  9.9730e-06      0.9943   
  9.9740e-06      0.9941   
  9.9750e-06      0.9939   
  9.9760e-06      0.9937   
  9.9770e-06      0.9935   
  9.9780e-06      0.9933   
  9.9790e-06      0.9934   
  9.9800e-06      0.9936   
  9.9810e-06      0.9938   
  9.9820e-06      0.9940   
  9.9830e-06      0.9942   
  9.9840e-06      0.9944   
  9.9850e-06      0.9946   
  9.9860e-06      0.9948   
  9.9870e-06      0.9950   
  9.9880e-06      0.9951   
  9.9890e-06      0.9953   
  9.9900e-06      0.9955   
  9.9910e-06      0.9957   
  9.9920e-06      0.9959   
  9.9930e-06      0.9961   
  9.9940e-06      0.9963   
  9.9950e-06      0.9965   
  9.9960e-06      0.9986   
  9.9970e-06      1.0008   
  9.9980e-06      1.0029   
  9.9990e-06      1.0050   
  1.0000e-05      1.0072   
y
-----------------------------------------------
 t1= 8.2673e-09
 t2= 3.0208e-06
 period= 1.0042e-06
 delay_per_stage= 2.9534e-08

          ***** job concluded
1****** HSPICE -- G-2012.06 32-BIT (May 27 2012) RHEL32 ******                  
 ******  
 *sample netlist for bsim6

  ******  job statistics summary tnom=  25.000 temp=  25.000 *****
  
  
 ******  Machine Information  ******
 CPU:
 model name	: Intel(R) Xeon(R) CPU           E5645  @ 2.40GHz
 cpu MHz	: 2394.056
  
 OS:
 Linux version 2.6.32-504.3.3.el6.x86_64 (mockbuild@x86-028.build.eng.bos.redhat.com) (gcc version 4.4.7 20120313 (Red Hat 4.4.7-9) (GCC) ) #1 SMP Fri Dec 12 16:05:43 EST 2014


  ******  HSPICE Threads Information  ******

  Command Line Threads Count :     1
  Available CPU Count        :    12
  Actual Threads Count       :     1


  ******  Circuit Statistics  ******
  # nodes       =     427 # elements   =      35
  # resistors   =       0 # capacitors =       0 # inductors   =       0
  # mutual_inds =       0 # vccs       =       0 # vcvs        =       0
  # cccs        =       0 # ccvs       =       0 # volt_srcs   =       1
  # curr_srcs   =       0 # diodes     =       0 # bjts        =       0
  # jfets       =       0 # mosfets    =       0 # U elements  =       0
  # T elements  =       0 # W elements =       0 # B elements  =       0
  # S elements  =       0 # P elements =       0 # va device   =      34
  # vector_srcs =       0 # N elements =       0


  ******  Runtime Statistics (seconds)  ******

  analysis           time    # points   tot. iter  conv.iter
  op point           0.04           1          19
  transient          7.29       10001        3344        1134 rev=         0
  readin             2.43
  errchk             0.14
  setup              0.01
  output             0.01


           peak memory used        120.53 megabytes
           total cpu time            9.92 seconds
           total elapsed time       16.64 seconds
           job started at     10:15:17 07/28/2015
           job ended   at     10:15:34 07/28/2015


 lic: Release hspice token(s) 
 lic: total license checkout elapse time:        0.54(s)
