Using: /cad/synopsys/Hspice/G-2012.06/hspice/linux/hspice inverter_transient.sp
 ****** HSPICE -- G-2012.06 32-BIT (May 27 2012) RHEL32 ******                  
  Copyright (C) 2012 Synopsys, Inc. All Rights Reserved.                        
  Unpublished-rights reserved under US copyright laws.
  This program is protected by law and is subject to the
  terms and conditions of the license agreement from Synopsys.
  Use of this program is your acceptance to be bound by the
  license agreement. HSPICE is the trademark of Synopsys, Inc.
  Input File: inverter_transient.sp                                             
  Command line options: inverter_transient.sp
 lic:  
 lic: FLEXlm: v10.8 
 lic: USER:   agarwalh             HOSTNAME: xcel1.vlsi.iitk.ac.in 
 lic: HOSTID: 0008a1953eea         PID:      18528 
 lic: Using FLEXlm license file: 
 lic: 27000@xcel0 
 lic: Checkout 1 hspice 
 lic: License/Maintenance for hspice will expire on 15-jun-2014/2013.03 
 lic: 1(in_use)/5(total) FLOATING license(s) on SERVER xcel0 
 lic:   
 Init: read install configuration file: /cad/synopsys/Hspice/G-2012.06/hspice/meta.cfg


 --------------------------------------------------------
|                                                        |
|          Synopsys Unified Verilog-A (pVA v2.0)         |
|                                                        |
|           Machine Name: xcel1.vlsi.iitk.ac.in          |
| Copyright (c) 2011 Synopsys Inc., All Rights Reserved. |
|                                                        |
 --------------------------------------------------------

libepva built by pvamgr synmake_pva_build  on Tue May  1 20:03:16 PDT 2012
HSP_HOME:   /cad/synopsys/Hspice/G-2012.06/hspice
HSP_ARCH:   linux
HSP_GCC :   /cad/synopsys/Hspice/G-2012.06/hspice/GNU/amd64/gcc-4.5.2-static/bin/gcc -m32 
HSP_GCC_VER:   4.5.2
Working-Dir: /users/phd/agarwalh/synopsys_designs/BSIM6/Release_test/bsim6.1.1/bsim6.1.1
Args:        -p hsp -t spi -f inverter_transient.pvadir/pvaHDL.lis -o inverter_transient.pvadir 


Begin of pVA compiling on Wed Mar 19 15:40:57 2014

Parsing './bsim6.va'
Parsing include file '/cad/synopsys/Hspice/G-2012.06/hspice/include/constants.vams'
Parsing include file '/cad/synopsys/Hspice/G-2012.06/hspice/include/disciplines.vams'

End of pVA compiling on Wed Mar 19 15:40:57 2014


End of build pVA DB on Wed Mar 19 15:40:57 2014

*pvaI* Module (bsim6): 4 unexpanded port, 0 init, 2370 behav, 64 contrib, 43/2409 expr(s)
*pvaI* Resizing DB size for v count = 1
*pvaI*        Has DIS (ST SB), 3 afCount
*pvaI*        0 const-G and 0 const-C, Has switch branch.
*pvaI* Module (bsim6): generated 7 flow node(s) during compilation.

End of pVA genC on Wed Mar 19 15:41:00 2014

*pvaI* #### Total 316 line-size(s), 43 expr(s), 64 contr(s), 0 init(s), 2370 behav(s), 4 port(s)

Generating inverter_transient.pvadir/pvaRTL_linux.so


End of submitting pVA inverter_transient.pvadir/pvaRTL.mak on Wed Mar 19 15:41:10 2014


End of pVA elaboration on Wed Mar 19 15:41:10 2014

  **warning** (inverter_transient.sp:14) Global net name, "gnd", in subckt pin list. The pin will be connected to the local net. Recommend to not use global net names in subckt pin lists.
 Loading pVA library inverter_transient.pvadir/pvaRTL_linux.so...
1****** HSPICE -- G-2012.06 32-BIT (May 27 2012) RHEL32 ******                  
 ******  
 *sample netlist for bsim6

  ******  circuit name directory
 circuit number to circuit name directory
   number circuitname                     definition         multiplier
        0 main circuit
        1 xinv1.                          inverter           1.00 
        2 xinv2.                          inverter           1.00 
        3 xinv3.                          inverter           1.00 
        4 xinv4.                          inverter           1.00 
        5 xinv5.                          inverter           1.00 
        6 xinv1.xp1.                      bsim6(va)          1.00 
        7 xinv1.xn1.                      bsim6(va)          1.00 
        8 xinv2.xp1.                      bsim6(va)          1.00 
        9 xinv2.xn1.                      bsim6(va)          1.00 
       10 xinv3.xp1.                      bsim6(va)          1.00 
       11 xinv3.xn1.                      bsim6(va)          1.00 
       12 xinv4.xp1.                      bsim6(va)          1.00 
       13 xinv4.xn1.                      bsim6(va)          1.00 
       14 xinv5.xp1.                      bsim6(va)          1.00 
       15 xinv5.xn1.                      bsim6(va)          1.00 
*pvaI* Creating Verilog-A module 'bsim6' for XINV5.XN1
*pvaI* Creating Verilog-A module 'bsim6' for XINV5.XP1
  
      
 *****************************************************************
 ******  option summary
 ******
 runlvl  = 3         bypass  = 2         
  Opening plot unit= 15
 file=inverter_transient.pa0                                                   

1****** HSPICE -- G-2012.06 32-BIT (May 27 2012) RHEL32 ******                  
 ******  
 *sample netlist for bsim6

  ******  operating point information tnom=  25.000 temp=  25.000 *****
 ***** operating point status is voltage   simulation time is     0.     
     node    =voltage       node    =voltage       node    =voltage

 + 0:1       =   0.1692   0:2       =   0.9906   0:3       = 8.088e-03
 + 0:4       =   0.9998   0:supply  =   1.0000   0:vi      =   0.5000 
 + 0:vo      = 7.603e-03

 ******  
 *sample netlist for bsim6

  ******  transient analysis tnom=  25.000 temp=  25.000 *****
x

        time    voltage      voltage    
                    vi           vo     
    0.            0.5000     7.603e-03  
  1.0000e-08      0.5314     7.564e-03  
  2.0000e-08      0.5626     7.595e-03  
  3.0000e-08      0.5937     7.642e-03  
  4.0000e-08      0.6237     7.631e-03  
  5.0000e-08      0.6537     7.620e-03  
  6.0000e-08      0.6837     7.609e-03  
  7.0000e-08      0.7122     7.596e-03  
  8.0000e-08      0.7398     7.581e-03  
  9.0000e-08      0.7674     7.566e-03  
  1.0000e-07      0.7923     7.569e-03  
  1.1000e-07      0.8153     7.586e-03  
  1.2000e-07      0.8383     7.602e-03  
  1.3000e-07      0.8613     7.618e-03  
  1.4000e-07      0.8843     7.634e-03  
  1.5000e-07      0.9045     7.607e-03  
  1.6000e-07      0.9221     7.610e-03  
  1.7000e-07      0.9369     7.608e-03  
  1.8000e-07      0.9514     7.607e-03  
  1.9000e-07      0.9627     7.605e-03  
  2.0000e-07      0.9690     7.605e-03  
  2.1000e-07      0.9752     7.605e-03  
  2.2000e-07      0.9814     7.604e-03  
  2.3000e-07      0.9876     7.604e-03  
  2.4000e-07      0.9938     7.604e-03  
  2.5000e-07      1.0000     7.604e-03  
  2.6000e-07      0.9951     7.603e-03  
  2.7000e-07      0.9902     7.603e-03  
  2.8000e-07      0.9853     7.603e-03  
  2.9000e-07      0.9804     7.603e-03  
  3.0000e-07      0.9755     7.603e-03  
  3.1000e-07      0.9637     7.603e-03  
  3.2000e-07      0.9519     7.603e-03  
  3.3000e-07      0.9369     7.604e-03  
  3.4000e-07      0.9207     7.606e-03  
  3.5000e-07      0.9045     7.607e-03  
  3.6000e-07      0.8829     7.606e-03  
  3.7000e-07      0.8612     7.605e-03  
  3.8000e-07      0.8396     7.604e-03  
  3.9000e-07      0.8179     7.603e-03  
  4.0000e-07      0.7931     7.603e-03  
  4.1000e-07      0.7671     7.603e-03  
  4.2000e-07      0.7405     7.604e-03  
  4.3000e-07      0.7104     7.604e-03  
  4.4000e-07      0.6804     7.604e-03  
  4.5000e-07      0.6503     7.603e-03  
  4.6000e-07      0.6202     7.603e-03  
  4.7000e-07      0.5902     7.603e-03  
  4.8000e-07      0.5601     7.603e-03  
  4.9000e-07      0.5301     7.603e-03  
  5.0000e-07      0.5000     7.603e-03  
  5.1000e-07      0.4689     7.602e-03  
  5.2000e-07      0.4377     7.602e-03  
  5.3000e-07      0.4066     7.602e-03  
  5.4000e-07      0.3757     7.581e-03  
  5.5000e-07      0.3458     7.536e-03  
  5.6000e-07      0.3171     7.549e-03  
  5.7000e-07      0.2884     7.561e-03  
  5.8000e-07      0.2597     7.574e-03  
  5.9000e-07      0.2326     8.766e-03  
  6.0000e-07      0.2067     1.078e-02  
  6.1000e-07      0.1817     9.912e-03  
  6.2000e-07      0.1586     2.050e-03  
  6.3000e-07      0.1356    -5.813e-03  
  6.4000e-07      0.1155    -3.482e-02  
  6.5000e-07    9.549e-02   -6.516e-02  
  6.6000e-07    7.786e-02    8.967e-02  
  6.7000e-07    6.193e-02      0.7638   
  6.8000e-07    4.761e-02      0.9206   
  6.9000e-07    3.530e-02      0.9695   
  7.0000e-07    2.491e-02      0.9884   
  7.1000e-07    1.609e-02      0.9963   
  7.2000e-07    9.446e-03      0.9979   
  7.3000e-07    4.962e-03      0.9989   
  7.4000e-07    2.481e-03      0.9992   
  7.5000e-07      0.           0.9996   
  7.6000e-07    1.899e-03      0.9996   
  7.7000e-07    4.101e-03      0.9997   
  7.8000e-07    1.011e-02      0.9997   
  7.9000e-07    1.612e-02      0.9998   
  8.0000e-07    2.807e-02      0.9998   
  8.1000e-07    4.155e-02      0.9998   
  8.2000e-07    5.504e-02      0.9998   
  8.3000e-07    6.852e-02      0.9998   
  8.4000e-07    8.201e-02      0.9998   
  8.5000e-07    9.549e-02      0.9998   
  8.6000e-07      0.1184       0.9998   
  8.7000e-07      0.1412       0.9998   
  8.8000e-07      0.1641       0.9998   
  8.9000e-07      0.1869       0.9998   
  9.0000e-07      0.2098       0.9998   
  9.1000e-07      0.2326       0.9998   
  9.2000e-07      0.2597       0.9998   
  9.3000e-07      0.2875       0.9998   
  9.4000e-07      0.3167       0.9998   
  9.5000e-07      0.3472       0.9998   
  9.6000e-07      0.3778       0.9998   
  9.7000e-07      0.4083       0.9998   
  9.8000e-07      0.4389       0.9998   
  9.9000e-07      0.4694       0.9998   
  1.0000e-06      0.5000       0.9998   
  1.0100e-06      0.5313       0.9999   
  1.0200e-06      0.5626       0.9999   
  1.0300e-06      0.5937       0.9999   
  1.0400e-06      0.6240       1.0000   
  1.0500e-06      0.6540       1.0001   
  1.0600e-06      0.6840       1.0002   
  1.0700e-06      0.7126       0.9959   
  1.0800e-06      0.7407       0.9921   
  1.0900e-06      0.7676       0.9905   
  1.1000e-06      0.7936       1.0137   
  1.1100e-06      0.8185       1.0691   
  1.1200e-06      0.8420       1.0677   
  1.1300e-06      0.8642       0.8207   
  1.1400e-06      0.8852       0.2834   
  1.1500e-06      0.9045     9.981e-02  
  1.1600e-06      0.9220     6.163e-02  
  1.1700e-06      0.9381     3.828e-02  
  1.1800e-06      0.9512     2.912e-02  
  1.1900e-06      0.9643     1.997e-02  
  1.2000e-06      0.9743     1.516e-02  
  1.2100e-06      0.9828     1.260e-02  
  1.2200e-06      0.9910     1.013e-02  
  1.2300e-06      0.9940     9.442e-03  
  1.2400e-06      0.9970     8.754e-03  
  1.2500e-06      1.0000     8.066e-03  
  1.2600e-06      0.9981     7.965e-03  
  1.2700e-06      0.9960     7.864e-03  
  1.2800e-06      0.9899     7.787e-03  
  1.2900e-06      0.9838     7.710e-03  
  1.3000e-06      0.9721     7.678e-03  
  1.3100e-06      0.9586     7.661e-03  
  1.3200e-06      0.9451     7.644e-03  
  1.3300e-06      0.9316     7.627e-03  
  1.3400e-06      0.9180     7.610e-03  
  1.3500e-06      0.9045     7.594e-03  
  1.3600e-06      0.8821     7.595e-03  
  1.3700e-06      0.8598     7.596e-03  
  1.3800e-06      0.8374     7.597e-03  
  1.3900e-06      0.8151     7.598e-03  
  1.4000e-06      0.7927     7.599e-03  
  1.4100e-06      0.7673     7.601e-03  
  1.4200e-06      0.7402     7.602e-03  
  1.4300e-06      0.7126     7.603e-03  
  1.4400e-06      0.6822     7.603e-03  
  1.4500e-06      0.6518     7.603e-03  
  1.4600e-06      0.6215     7.603e-03  
  1.4700e-06      0.5911     7.603e-03  
  1.4800e-06      0.5607     7.603e-03  
  1.4900e-06      0.5304     7.603e-03  
  1.5000e-06      0.5000     7.603e-03  
  1.5100e-06      0.4689     7.602e-03  
  1.5200e-06      0.4377     7.602e-03  
  1.5300e-06      0.4066     7.602e-03  
  1.5400e-06      0.3757     7.581e-03  
  1.5500e-06      0.3458     7.545e-03  
  1.5600e-06      0.3170     7.542e-03  
  1.5700e-06      0.2882     7.539e-03  
  1.5800e-06      0.2594     7.536e-03  
  1.5900e-06      0.2327     8.622e-03  
  1.6000e-06      0.2067     1.003e-02  
  1.6100e-06      0.1819     8.740e-03  
  1.6200e-06      0.1589     3.662e-03  
  1.6300e-06      0.1359    -1.415e-03  
  1.6400e-06      0.1153    -2.908e-02  
  1.6500e-06    9.549e-02   -6.305e-02  
  1.6600e-06    7.787e-02    2.286e-02  
  1.6700e-06    6.189e-02      0.6912   
  1.6800e-06    4.759e-02      0.9055   
  1.6900e-06    3.529e-02      0.9635   
  1.7000e-06    2.487e-02      0.9862   
  1.7100e-06    1.609e-02      0.9956   
  1.7200e-06    9.314e-03      0.9977   
  1.7300e-06    4.934e-03      0.9988   
  1.7400e-06    1.944e-03      0.9992   
  1.7500e-06      0.           0.9995   
  1.7600e-06    1.583e-03      0.9996   
  1.7700e-06    4.887e-03      0.9997   
  1.7800e-06    1.010e-02      0.9997   
  1.7900e-06    2.003e-02      0.9998   
  1.8000e-06    2.995e-02      0.9998   
  1.8100e-06    3.987e-02      0.9998   
  1.8200e-06    4.980e-02      0.9998   
  1.8300e-06    6.259e-02      0.9998   
  1.8400e-06    7.904e-02      0.9998   
  1.8500e-06    9.549e-02      0.9998   
  1.8600e-06      0.1169       0.9998   
  1.8700e-06      0.1383       0.9998   
  1.8800e-06      0.1596       0.9998   
  1.8900e-06      0.1814       0.9998   
  1.9000e-06      0.2070       0.9998   
  1.9100e-06      0.2326       0.9998   
  1.9200e-06      0.2605       0.9998   
  1.9300e-06      0.2905       0.9998   
  1.9400e-06      0.3204       0.9998   
  1.9500e-06      0.3503       0.9998   
  1.9600e-06      0.3803       0.9998   
  1.9700e-06      0.4102       0.9998   
  1.9800e-06      0.4401       0.9998   
  1.9900e-06      0.4701       0.9998   
  2.0000e-06      0.5000       0.9998   
  2.0100e-06      0.5313       0.9998   
  2.0200e-06      0.5625       0.9999   
  2.0300e-06      0.5937       0.9999   
  2.0400e-06      0.6240       0.9999   
  2.0500e-06      0.6539       0.9998   
  2.0600e-06      0.6838       0.9997   
  2.0700e-06      0.7126       0.9965   
  2.0800e-06      0.7408       0.9917   
  2.0900e-06      0.7675       0.9923   
  2.1000e-06      0.7938       1.0008   
  2.1100e-06      0.8183       1.0661   
  2.1200e-06      0.8420       1.0728   
  2.1300e-06      0.8644       0.9292   
  2.1400e-06      0.8852       0.2910   
  2.1500e-06      0.9045     9.007e-02  
  2.1600e-06      0.9221     6.017e-02  
  2.1700e-06      0.9380     3.912e-02  
  2.1800e-06      0.9518     2.768e-02  
  2.1900e-06      0.9648     1.896e-02  
  2.2000e-06      0.9739     1.579e-02  
  2.2100e-06      0.9830     1.262e-02  
  2.2200e-06      0.9901     1.029e-02  
  2.2300e-06      0.9934     9.548e-03  
  2.2400e-06      0.9967     8.809e-03  
  2.2500e-06      1.0000     8.070e-03  
  2.2600e-06      0.9980     7.958e-03  
  2.2700e-06      0.9960     7.846e-03  
  2.2800e-06      0.9899     7.773e-03  
  2.2900e-06      0.9837     7.701e-03  
  2.3000e-06      0.9724     7.669e-03  
  2.3100e-06      0.9588     7.655e-03  
  2.3200e-06      0.9452     7.640e-03  
  2.3300e-06      0.9317     7.626e-03  
  2.3400e-06      0.9181     7.612e-03  
  2.3500e-06      0.9045     7.597e-03  
  2.3600e-06      0.8822     7.598e-03  
  2.3700e-06      0.8598     7.598e-03  
  2.3800e-06      0.8375     7.599e-03  
  2.3900e-06      0.8151     7.600e-03  
  2.4000e-06      0.7928     7.600e-03  
  2.4100e-06      0.7673     7.601e-03  
  2.4200e-06      0.7402     7.602e-03  
  2.4300e-06      0.7125     7.603e-03  
  2.4400e-06      0.6822     7.603e-03  
  2.4500e-06      0.6518     7.603e-03  
  2.4600e-06      0.6215     7.603e-03  
  2.4700e-06      0.5911     7.603e-03  
  2.4800e-06      0.5607     7.603e-03  
  2.4900e-06      0.5304     7.603e-03  
  2.5000e-06      0.5000     7.603e-03  
  2.5100e-06      0.4689     7.602e-03  
  2.5200e-06      0.4377     7.602e-03  
  2.5300e-06      0.4066     7.602e-03  
  2.5400e-06      0.3757     7.581e-03  
  2.5500e-06      0.3458     7.545e-03  
  2.5600e-06      0.3170     7.542e-03  
  2.5700e-06      0.2882     7.539e-03  
  2.5800e-06      0.2594     7.536e-03  
  2.5900e-06      0.2327     8.626e-03  
  2.6000e-06      0.2067     1.004e-02  
  2.6100e-06      0.1819     8.756e-03  
  2.6200e-06      0.1589     3.643e-03  
  2.6300e-06      0.1359    -1.469e-03  
  2.6400e-06      0.1153    -2.921e-02  
  2.6500e-06    9.549e-02   -6.311e-02  
  2.6600e-06    7.787e-02    2.382e-02  
  2.6700e-06    6.189e-02      0.6932   
  2.6800e-06    4.759e-02      0.9058   
  2.6900e-06    3.529e-02      0.9636   
  2.7000e-06    2.487e-02      0.9863   
  2.7100e-06    1.609e-02      0.9956   
  2.7200e-06    9.317e-03      0.9977   
  2.7300e-06    4.933e-03      0.9988   
  2.7400e-06    1.950e-03      0.9992   
  2.7500e-06      0.           0.9995   
  2.7600e-06    1.584e-03      0.9996   
  2.7700e-06    4.855e-03      0.9997   
  2.7800e-06    1.021e-02      0.9997   
  2.7900e-06    2.006e-02      0.9998   
  2.8000e-06    2.992e-02      0.9998   
  2.8100e-06    3.977e-02      0.9998   
  2.8200e-06    4.962e-02      0.9998   
  2.8300e-06    6.268e-02      0.9998   
  2.8400e-06    7.908e-02      0.9998   
  2.8500e-06    9.549e-02      0.9998   
  2.8600e-06      0.1169       0.9998   
  2.8700e-06      0.1384       0.9998   
  2.8800e-06      0.1598       0.9998   
  2.8900e-06      0.1813       0.9998   
  2.9000e-06      0.2070       0.9998   
  2.9100e-06      0.2327       0.9998   
  2.9200e-06      0.2603       0.9998   
  2.9300e-06      0.2903       0.9998   
  2.9400e-06      0.3202       0.9998   
  2.9500e-06      0.3502       0.9998   
  2.9600e-06      0.3802       0.9998   
  2.9700e-06      0.4101       0.9998   
  2.9800e-06      0.4401       0.9998   
  2.9900e-06      0.4700       0.9998   
  3.0000e-06      0.5000       0.9998   
  3.0100e-06      0.5313       0.9998   
  3.0200e-06      0.5625       0.9999   
  3.0300e-06      0.5937       0.9999   
  3.0400e-06      0.6240       0.9999   
  3.0500e-06      0.6539       0.9999   
  3.0600e-06      0.6838       0.9998   
  3.0700e-06      0.7126       0.9964   
  3.0800e-06      0.7408       0.9917   
  3.0900e-06      0.7675       0.9922   
  3.1000e-06      0.7938       1.0014   
  3.1100e-06      0.8183       1.0668   
  3.1200e-06      0.8420       1.0718   
  3.1300e-06      0.8644       0.9215   
  3.1400e-06      0.8852       0.2859   
  3.1500e-06      0.9045     8.948e-02  
  3.1600e-06      0.9221     6.012e-02  
  3.1700e-06      0.9380     3.906e-02  
  3.1800e-06      0.9518     2.762e-02  
  3.1900e-06      0.9647     1.911e-02  
  3.2000e-06      0.9739     1.584e-02  
  3.2100e-06      0.9831     1.257e-02  
  3.2200e-06      0.9900     1.032e-02  
  3.2300e-06      0.9933     9.570e-03  
  3.2400e-06      0.9967     8.816e-03  
  3.2500e-06      1.0000     8.063e-03  
  3.2600e-06      0.9980     7.951e-03  
  3.2700e-06      0.9960     7.839e-03  
  3.2800e-06      0.9899     7.768e-03  
  3.2900e-06      0.9837     7.698e-03  
  3.3000e-06      0.9724     7.667e-03  
  3.3100e-06      0.9588     7.653e-03  
  3.3200e-06      0.9452     7.639e-03  
  3.3300e-06      0.9317     7.625e-03  
  3.3400e-06      0.9181     7.611e-03  
  3.3500e-06      0.9045     7.598e-03  
  3.3600e-06      0.8822     7.598e-03  
  3.3700e-06      0.8598     7.599e-03  
  3.3800e-06      0.8375     7.599e-03  
  3.3900e-06      0.8151     7.600e-03  
  3.4000e-06      0.7928     7.600e-03  
  3.4100e-06      0.7673     7.601e-03  
  3.4200e-06      0.7402     7.602e-03  
  3.4300e-06      0.7125     7.603e-03  
  3.4400e-06      0.6822     7.603e-03  
  3.4500e-06      0.6518     7.603e-03  
  3.4600e-06      0.6215     7.603e-03  
  3.4700e-06      0.5911     7.603e-03  
  3.4800e-06      0.5607     7.603e-03  
  3.4900e-06      0.5304     7.603e-03  
  3.5000e-06      0.5000     7.603e-03  
  3.5100e-06      0.4689     7.602e-03  
  3.5200e-06      0.4377     7.602e-03  
  3.5300e-06      0.4066     7.602e-03  
  3.5400e-06      0.3757     7.581e-03  
  3.5500e-06      0.3458     7.545e-03  
  3.5600e-06      0.3170     7.542e-03  
  3.5700e-06      0.2882     7.539e-03  
  3.5800e-06      0.2594     7.536e-03  
  3.5900e-06      0.2327     8.626e-03  
  3.6000e-06      0.2067     1.004e-02  
  3.6100e-06      0.1819     8.755e-03  
  3.6200e-06      0.1589     3.644e-03  
  3.6300e-06      0.1359    -1.466e-03  
  3.6400e-06      0.1153    -2.920e-02  
  3.6500e-06    9.549e-02   -6.311e-02  
  3.6600e-06    7.787e-02    2.377e-02  
  3.6700e-06    6.189e-02      0.6931   
  3.6800e-06    4.759e-02      0.9058   
  3.6900e-06    3.529e-02      0.9636   
  3.7000e-06    2.487e-02      0.9863   
  3.7100e-06    1.609e-02      0.9956   
  3.7200e-06    9.317e-03      0.9977   
  3.7300e-06    4.933e-03      0.9988   
  3.7400e-06    1.949e-03      0.9992   
  3.7500e-06      0.           0.9995   
  3.7600e-06    1.584e-03      0.9996   
  3.7700e-06    4.856e-03      0.9997   
  3.7800e-06    1.020e-02      0.9997   
  3.7900e-06    2.006e-02      0.9998   
  3.8000e-06    2.992e-02      0.9998   
  3.8100e-06    3.977e-02      0.9998   
  3.8200e-06    4.963e-02      0.9998   
  3.8300e-06    6.267e-02      0.9998   
  3.8400e-06    7.908e-02      0.9998   
  3.8500e-06    9.549e-02      0.9998   
  3.8600e-06      0.1169       0.9998   
  3.8700e-06      0.1384       0.9998   
  3.8800e-06      0.1598       0.9998   
  3.8900e-06      0.1813       0.9998   
  3.9000e-06      0.2070       0.9998   
  3.9100e-06      0.2327       0.9998   
  3.9200e-06      0.2603       0.9998   
  3.9300e-06      0.2903       0.9998   
  3.9400e-06      0.3202       0.9998   
  3.9500e-06      0.3502       0.9998   
  3.9600e-06      0.3802       0.9998   
  3.9700e-06      0.4101       0.9998   
  3.9800e-06      0.4401       0.9998   
  3.9900e-06      0.4700       0.9998   
  4.0000e-06      0.5000       0.9998   
  4.0100e-06      0.5313       0.9998   
  4.0200e-06      0.5625       0.9999   
  4.0300e-06      0.5937       0.9999   
  4.0400e-06      0.6240       0.9999   
  4.0500e-06      0.6539       0.9999   
  4.0600e-06      0.6838       0.9998   
  4.0700e-06      0.7126       0.9965   
  4.0800e-06      0.7408       0.9917   
  4.0900e-06      0.7675       0.9922   
  4.1000e-06      0.7938       1.0014   
  4.1100e-06      0.8183       1.0668   
  4.1200e-06      0.8420       1.0718   
  4.1300e-06      0.8644       0.9218   
  4.1400e-06      0.8852       0.2861   
  4.1500e-06      0.9045     8.951e-02  
  4.1600e-06      0.9221     6.012e-02  
  4.1700e-06      0.9380     3.907e-02  
  4.1800e-06      0.9518     2.763e-02  
  4.1900e-06      0.9647     1.911e-02  
  4.2000e-06      0.9739     1.584e-02  
  4.2100e-06      0.9831     1.257e-02  
  4.2200e-06      0.9900     1.032e-02  
  4.2300e-06      0.9933     9.569e-03  
  4.2400e-06      0.9967     8.816e-03  
  4.2500e-06      1.0000     8.063e-03  
  4.2600e-06      0.9980     7.951e-03  
  4.2700e-06      0.9960     7.839e-03  
  4.2800e-06      0.9899     7.768e-03  
  4.2900e-06      0.9837     7.698e-03  
  4.3000e-06      0.9724     7.667e-03  
  4.3100e-06      0.9588     7.653e-03  
  4.3200e-06      0.9452     7.639e-03  
  4.3300e-06      0.9317     7.625e-03  
  4.3400e-06      0.9181     7.611e-03  
  4.3500e-06      0.9045     7.598e-03  
  4.3600e-06      0.8822     7.598e-03  
  4.3700e-06      0.8598     7.599e-03  
  4.3800e-06      0.8375     7.599e-03  
  4.3900e-06      0.8151     7.600e-03  
  4.4000e-06      0.7928     7.600e-03  
  4.4100e-06      0.7673     7.601e-03  
  4.4200e-06      0.7402     7.602e-03  
  4.4300e-06      0.7125     7.603e-03  
  4.4400e-06      0.6822     7.603e-03  
  4.4500e-06      0.6518     7.603e-03  
  4.4600e-06      0.6215     7.603e-03  
  4.4700e-06      0.5911     7.603e-03  
  4.4800e-06      0.5607     7.603e-03  
  4.4900e-06      0.5304     7.603e-03  
  4.5000e-06      0.5000     7.603e-03  
  4.5100e-06      0.4689     7.602e-03  
  4.5200e-06      0.4377     7.602e-03  
  4.5300e-06      0.4066     7.602e-03  
  4.5400e-06      0.3757     7.581e-03  
  4.5500e-06      0.3458     7.545e-03  
  4.5600e-06      0.3170     7.542e-03  
  4.5700e-06      0.2882     7.539e-03  
  4.5800e-06      0.2594     7.536e-03  
  4.5900e-06      0.2327     8.626e-03  
  4.6000e-06      0.2067     1.004e-02  
  4.6100e-06      0.1819     8.755e-03  
  4.6200e-06      0.1589     3.644e-03  
  4.6300e-06      0.1359    -1.466e-03  
  4.6400e-06      0.1153    -2.920e-02  
  4.6500e-06    9.549e-02   -6.311e-02  
  4.6600e-06    7.787e-02    2.377e-02  
  4.6700e-06    6.189e-02      0.6931   
  4.6800e-06    4.759e-02      0.9058   
  4.6900e-06    3.529e-02      0.9636   
  4.7000e-06    2.487e-02      0.9863   
  4.7100e-06    1.609e-02      0.9956   
  4.7200e-06    9.317e-03      0.9977   
  4.7300e-06    4.933e-03      0.9988   
  4.7400e-06    1.949e-03      0.9992   
  4.7500e-06      0.           0.9995   
  4.7600e-06    1.584e-03      0.9996   
  4.7700e-06    4.856e-03      0.9997   
  4.7800e-06    1.021e-02      0.9997   
  4.7900e-06    2.006e-02      0.9998   
  4.8000e-06    2.992e-02      0.9998   
  4.8100e-06    3.977e-02      0.9998   
  4.8200e-06    4.963e-02      0.9998   
  4.8300e-06    6.267e-02      0.9998   
  4.8400e-06    7.908e-02      0.9998   
  4.8500e-06    9.549e-02      0.9998   
  4.8600e-06      0.1169       0.9998   
  4.8700e-06      0.1384       0.9998   
  4.8800e-06      0.1598       0.9998   
  4.8900e-06      0.1813       0.9998   
  4.9000e-06      0.2070       0.9998   
  4.9100e-06      0.2327       0.9998   
  4.9200e-06      0.2603       0.9998   
  4.9300e-06      0.2903       0.9998   
  4.9400e-06      0.3202       0.9998   
  4.9500e-06      0.3502       0.9998   
  4.9600e-06      0.3802       0.9998   
  4.9700e-06      0.4101       0.9998   
  4.9800e-06      0.4401       0.9998   
  4.9900e-06      0.4700       0.9998   
  5.0000e-06      0.5000       0.9998   
y
-----------------------------------------------

          ***** job concluded
1****** HSPICE -- G-2012.06 32-BIT (May 27 2012) RHEL32 ******                  
 ******  
 *sample netlist for bsim6

  ******  job statistics summary tnom=  25.000 temp=  25.000 *****
  
  
 ******  Machine Information  ******
 CPU:
 model name	: AMD Opteron(tm) Processor 248
 cpu MHz	: 2200.048
  
 OS:
 Linux version 2.6.9-22.EL (bhcompile@crowe.devel.redhat.com) (gcc version 3.4.4 20050721 (Red Hat 3.4.4-2)) #1 Mon Sep 19 17:49:49 EDT 2005


  ******  HSPICE Threads Information  ******

  Command Line Threads Count :     1
  Available CPU Count        :     1
  Actual Threads Count       :     1


  ******  Circuit Statistics  ******
  # nodes       =     108 # elements   =      12
  # resistors   =       0 # capacitors =       0 # inductors   =       0
  # mutual_inds =       0 # vccs       =       0 # vcvs        =       0
  # cccs        =       0 # ccvs       =       0 # volt_srcs   =       2
  # curr_srcs   =       0 # diodes     =       0 # bjts        =       0
  # jfets       =       0 # mosfets    =       0 # U elements  =       0
  # T elements  =       0 # W elements =       0 # B elements  =       0
  # S elements  =       0 # P elements =       0 # va device   =      10
  # vector_srcs =       0 # N elements =       0


  ******  Runtime Statistics (seconds)  ******

  analysis           time    # points   tot. iter  conv.iter
  op point           0.02           1          14
  transient          0.63         501         677         224 rev=         0
  readin             3.38
  errchk             0.10
  setup              0.00
  output             0.00


           peak memory used        115.13 megabytes
           total cpu time            4.13 seconds
           total elapsed time       14.96 seconds
           job started at     15:40:56 03/19/2014
           job ended   at     15:41:11 03/19/2014


 lic: Release hspice token(s) 
 lic: total license checkout elapse time:        0.21(s)


pVA concluded on Wed Mar 19 15:41:11 2014

