 ****** HSPICE -- G-2012.06 32-BIT (May 27 2012) RHEL32 ******                  
  Copyright (C) 2012 Synopsys, Inc. All Rights Reserved.                        
  Unpublished-rights reserved under US copyright laws.
  This program is protected by law and is subject to the
  terms and conditions of the license agreement from Synopsys.
  Use of this program is your acceptance to be bound by the
  license agreement. HSPICE is the trademark of Synopsys, Inc.
  Input File: gummel_p.sp                                                       
  Command line options: -hdlpath ../code -i gummel_p.sp -o gummel_p
 lic:  
 lic: FLEXlm: v10.8 
 lic: USER:   sourabh              HOSTNAME: bwrcr720-1.eecs.berkeley.edu 
 lic: HOSTID:                      PID:      30490 
 lic: Using FLEXlm license file: 
 lic: 1701@sunv40z-1.eecs.berkeley.edu 
 lic: Checkout 1 hspice 
 lic: License/Maintenance for hspice will expire on 18-nov-2014/2013.03 
 lic: 1(in_use)/50(total) FLOATING license(s) on SERVER sunv40z-1.eecs.berkeley.
 lic:   
 Init: read install configuration file: /tools/synopsys/hspice/G-2012.06/hspice/meta.cfg
 **info** *pvaI* Module (bsimcmg): 4 unexpanded port, 0 init, 2326 behav, 66 contrib, 63/3580 expr(s)

 **info** *pvaI* Resizing DB size for v count = 1

 **info** *pvaI* Resizing DB size for v count = 2

 **info** *pvaI*        Has DIS (SB), 5 afCount

 **info** *pvaI*        0 const-G and 0 const-C, Has switch branch.

 **info** *pvaI* Module (bsimcmg): generated 3 flow node(s) during compilation.

 **info** *pvaI* #### Total 697 line-size(s), 63 expr(s), 66 contr(s), 0 init(s), 2326 behav(s), 4 port(s)

 Loading pVA library gummel_p.pvadir/pvaRTL_linux.so...
1****** HSPICE -- G-2012.06 32-BIT (May 27 2012) RHEL32 ******                  
 ******  
 *sample netlist for bsim-mg

  ******  circuit name directory
 circuit number to circuit name directory
   number circuitname                     definition         multiplier
        0 main circuit
        1 x1.                             bsimcmg(va)        1.00 
 **info** *pvaI* Creating Verilog-A module 'bsimcmg' for X1

  
      
 *****************************************************************
 ******  option summary
 ******
 runlvl  = 3         bypass  = 2         
  Opening plot unit= 15
 file=gummel_p.pa0                                                             

 ******  
 *sample netlist for bsim-mg

  ******  dc transfer curves tnom=  25.000 temp=  25.000 *****

   *** source        0:vgate =    0.            ***

x

        volt    param        param        param        param      
                    ids          gx           gx2          gx3    
   -0.10000    -4.064e-10      0.           0.           0.       
 -9.9000e-02   -3.919e-10   -4.064e-07      0.           0.       
 -9.8000e-02   -3.779e-10    1.450e-08   -4.064e-04      0.       
 -9.7000e-02   -3.644e-10    1.403e-08    4.209e-04     -0.4064   
 -9.6000e-02   -3.514e-10    1.349e-08   -4.690e-07      0.8274   
 -9.5000e-02   -3.388e-10    1.303e-08   -5.400e-07     -0.4214   
 -9.4000e-02   -3.267e-10    1.256e-08   -4.547e-07   -7.105e-05  
 -9.3000e-02   -3.150e-10    1.212e-08   -4.690e-07    8.527e-05  
 -9.2000e-02   -3.037e-10    1.170e-08   -4.405e-07   -1.421e-05  
 -9.1000e-02   -2.929e-10    1.128e-08   -4.263e-07    2.842e-05  
 -9.0000e-02   -2.823e-10    1.086e-08   -4.121e-07    1.421e-05  
 -8.9000e-02   -2.723e-10    1.053e-08   -4.263e-07    1.421e-05  
 -8.8000e-02   -2.625e-10    1.008e-08   -3.268e-07   -1.421e-05  
 -8.7000e-02   -2.531e-10    9.777e-09   -4.547e-07    9.948e-05  
 -8.6000e-02   -2.440e-10    9.408e-09   -2.984e-07   -1.279e-04  
 -8.5000e-02   -2.352e-10    9.095e-09   -3.695e-07    1.563e-04  
 -8.4000e-02   -2.268e-10    8.754e-09   -3.126e-07   -7.105e-05  
 -8.3000e-02   -2.186e-10    8.427e-09   -3.411e-07    5.684e-05  
 -8.2000e-02   -2.108e-10    8.157e-09   -3.268e-07   -2.842e-05  
 -8.1000e-02   -2.032e-10    7.859e-09   -2.700e-07    1.421e-05  
 -8.0000e-02   -1.959e-10    7.574e-09   -2.984e-07    5.684e-05  
 -7.9000e-02   -1.888e-10    7.333e-09   -2.842e-07   -2.842e-05  
 -7.8000e-02   -1.820e-10    7.034e-09   -2.416e-07    1.421e-05  
 -7.7000e-02   -1.755e-10    6.807e-09   -2.984e-07    4.263e-05  
 -7.6000e-02   -1.692e-10    6.551e-09   -2.274e-07   -5.684e-05  
 -7.5000e-02   -1.631e-10    6.338e-09   -2.558e-07    7.105e-05  
 -7.4000e-02   -1.572e-10    6.096e-09   -2.132e-07   -2.842e-05  
 -7.3000e-02   -1.515e-10    5.869e-09   -2.416e-07    4.263e-05  
 -7.2000e-02   -1.460e-10    5.699e-09   -2.274e-07   -2.842e-05  
 -7.1000e-02   -1.407e-10    5.457e-09   -1.705e-07    1.421e-05  
 -7.0000e-02   -1.356e-10    5.286e-09   -2.416e-07    5.684e-05  
 -6.9000e-02   -1.307e-10    5.116e-09   -1.705e-07   -7.105e-05  
 -6.8000e-02   -1.260e-10    4.889e-09   -1.705e-07    7.105e-05  
 -6.7000e-02   -1.214e-10    4.761e-09   -2.274e-07    8.206e-19  
 -6.6000e-02   -1.170e-10    4.562e-09   -1.279e-07   -5.684e-05  
 -6.5000e-02   -1.128e-10    4.391e-09   -1.990e-07    9.948e-05  
 -6.4000e-02   -1.087e-10    4.263e-09   -1.705e-07   -7.105e-05  
 -6.3000e-02   -1.047e-10    4.100e-09   -1.279e-07    2.842e-05  
 -6.2000e-02   -1.009e-10    3.958e-09   -1.634e-07    4.263e-05  
 -6.1000e-02   -9.720e-11    3.823e-09   -1.421e-07   -3.553e-05  
 -6.0000e-02   -9.366e-11    3.681e-09   -1.350e-07    2.132e-05  
 -5.9000e-02   -9.022e-11    3.546e-09   -1.421e-07    7.105e-06  
 -5.8000e-02   -8.691e-11    3.432e-09   -1.350e-07   -7.105e-06  
 -5.7000e-02   -8.372e-11    3.311e-09   -1.137e-07    7.105e-06  
 -5.6000e-02   -8.065e-11    3.197e-09   -1.208e-07    2.132e-05  
 -5.5000e-02   -7.768e-11    3.062e-09   -1.137e-07   -7.105e-06  
 -5.4000e-02   -7.480e-11    2.977e-09   -1.350e-07    7.105e-06  
 -5.3000e-02   -7.204e-11    2.878e-09   -8.527e-08   -2.132e-05  
 -5.2000e-02   -6.937e-11    2.757e-09   -9.948e-08    4.974e-05  
 -5.1000e-02   -6.680e-11    2.672e-09   -1.208e-07   -1.421e-05  
 -5.0000e-02   -6.430e-11    2.572e-09   -8.527e-08   -2.132e-05  
 -4.9000e-02   -6.190e-11    2.494e-09   -9.948e-08    3.553e-05  
 -4.8000e-02   -5.959e-11    2.402e-09   -7.816e-08   -1.421e-05  
 -4.7000e-02   -5.734e-11    2.309e-09   -9.237e-08    2.132e-05  
 -4.6000e-02   -5.519e-11    2.252e-09   -9.237e-08   -1.421e-05  
 -4.5000e-02   -5.311e-11    2.153e-09   -5.684e-08    1.677e-17  
 -4.4000e-02   -5.108e-11    2.082e-09   -9.948e-08    3.553e-05  
 -4.3000e-02   -4.913e-11    2.025e-09   -7.105e-08   -4.263e-05  
 -4.2000e-02   -4.725e-11    1.947e-09   -5.684e-08    2.842e-05  
 -4.1000e-02   -4.542e-11    1.883e-09   -7.816e-08    1.421e-05  
 -4.0000e-02   -4.366e-11    1.833e-09   -6.395e-08   -2.132e-05  
 -3.9000e-02   -4.196e-11    1.755e-09   -4.974e-08    1.421e-05  
 -3.8000e-02   -4.032e-11    1.705e-09   -7.816e-08    1.421e-05  
 -3.7000e-02   -3.872e-11    1.641e-09   -4.974e-08   -2.842e-05  
 -3.6000e-02   -3.718e-11    1.599e-09   -6.395e-08    2.842e-05  
 -3.5000e-02   -3.570e-11    1.535e-09   -4.263e-08   -1.421e-05  
 -3.4000e-02   -3.423e-11    1.485e-09   -6.395e-08    2.132e-05  
 -3.3000e-02   -3.283e-11    1.464e-09   -4.974e-08   -2.132e-05  
 -3.2000e-02   -3.147e-11    1.400e-09   -2.132e-08    1.421e-05  
 -3.1000e-02   -3.015e-11    1.361e-09   -6.395e-08    2.842e-05  
 -3.0000e-02   -2.887e-11    1.325e-09   -3.908e-08   -4.263e-05  
 -2.9000e-02   -2.762e-11    1.275e-09   -3.553e-08    2.487e-05  
 -2.8000e-02   -2.641e-11    1.251e-09   -4.974e-08    3.553e-06  
 -2.7000e-02   -2.524e-11    1.208e-09   -2.487e-08   -1.421e-05  
 -2.6000e-02   -2.409e-11    1.176e-09   -4.263e-08    2.487e-05  
 -2.5000e-02   -2.297e-11    1.151e-09   -3.197e-08   -1.776e-05  
 -2.4000e-02   -2.187e-11    1.116e-09   -2.487e-08    1.066e-05  
 -2.3000e-02   -2.082e-11    1.098e-09   -3.553e-08    7.105e-06  
 -2.2000e-02   -1.977e-11    1.059e-09   -1.776e-08   -1.066e-05  
 -2.1000e-02   -1.875e-11    1.044e-09   -3.908e-08    1.776e-05  
 -2.0000e-02   -1.775e-11    1.023e-09   -1.421e-08   -2.132e-05  
 -1.9000e-02   -1.677e-11    1.002e-09   -2.132e-08    2.487e-05  
 -1.8000e-02   -1.580e-11    9.770e-10   -2.132e-08   -7.105e-06  
 -1.7000e-02   -1.486e-11    9.663e-10   -2.487e-08      0.       
 -1.6000e-02   -1.393e-11    9.450e-10   -1.066e-08   -3.553e-06  
 -1.5000e-02   -1.300e-11    9.308e-10   -2.132e-08    1.421e-05  
 -1.4000e-02   -1.210e-11    9.219e-10   -1.421e-08   -1.066e-05  
 -1.3000e-02   -1.120e-11    9.077e-10   -8.882e-09    7.105e-06  
 -1.2000e-02   -1.031e-11    8.988e-10   -1.421e-08    5.329e-06  
 -1.1000e-02   -9.429e-12    8.882e-10   -8.882e-09   -5.329e-06  
 -1.0000e-02   -8.548e-12    8.811e-10   -1.066e-08    5.329e-06  
 -9.0000e-03   -7.683e-12    8.811e-10   -7.105e-09   -1.776e-06  
 -8.0000e-03   -6.818e-12    8.651e-10      0.         3.553e-06  
 -7.0000e-03   -5.957e-12    8.651e-10   -1.599e-08    7.105e-06  
 -6.0000e-03   -5.100e-12    8.606e-10      0.        -1.599e-05  
 -5.0000e-03   -4.245e-12    8.571e-10   -4.441e-09    1.599e-05  
 -4.0000e-03   -3.394e-12    8.544e-10   -3.553e-09   -4.441e-06  
 -3.0000e-03   -2.543e-12    8.513e-10   -2.665e-09    8.882e-07  
 -2.0000e-03   -1.694e-12    8.509e-10   -3.109e-09    8.882e-07  
 -1.0000e-03   -8.470e-13    8.489e-10   -4.441e-10   -4.441e-07  
    0.          1.880e-28    8.474e-10   -1.998e-09    2.665e-06  
  1.0000e-03    8.470e-13    8.470e-10   -1.443e-09   -1.554e-06  
  2.0000e-03    1.694e-12    8.470e-10   -4.441e-10    5.551e-07  
  3.0000e-03    2.544e-12    8.474e-10   -4.136e-22    9.992e-07  
  4.0000e-03    3.394e-12    8.493e-10    4.441e-10    4.441e-07  
  5.0000e-03    4.245e-12    8.504e-10    1.887e-09    4.441e-07  
  6.0000e-03    5.100e-12    8.513e-10    1.110e-09    1.443e-06  
  7.0000e-03    5.958e-12    8.544e-10    8.882e-10   -7.772e-07  
  8.0000e-03    6.819e-12    8.580e-10    3.109e-09   -2.220e-07  
  9.0000e-03    7.683e-12    8.615e-10    3.553e-09    2.220e-06  
  1.0000e-02    8.551e-12    8.633e-10    3.553e-09    4.441e-07  
  1.1000e-02    9.429e-12    8.686e-10    1.776e-09      0.       
  1.2000e-02    1.031e-11    8.775e-10    5.329e-09   -1.776e-06  
  1.3000e-02    1.120e-11    8.811e-10    8.882e-09    3.553e-06  
  1.4000e-02    1.210e-11    8.882e-10    3.553e-09    3.553e-06  
  1.5000e-02    1.301e-11    8.988e-10    7.105e-09   -5.329e-06  
  1.6000e-02    1.393e-11    9.095e-10    1.066e-08    3.553e-06  
  1.7000e-02    1.486e-11    9.202e-10    1.066e-08    3.553e-06  
  1.8000e-02    1.581e-11    9.308e-10    1.066e-08      0.       
  1.9000e-02    1.677e-11    9.486e-10    1.066e-08      0.       
  2.0000e-02    1.775e-11    9.663e-10    1.776e-08      0.       
  2.1000e-02    1.875e-11    9.770e-10    1.776e-08    7.105e-06  
  2.2000e-02    1.977e-11    9.983e-10    1.066e-08    1.320e-17  
  2.3000e-02    2.081e-11    1.023e-09    2.132e-08   -7.105e-06  
  2.4000e-02    2.188e-11    1.037e-09    2.487e-08    1.066e-05  
  2.5000e-02    2.297e-11    1.073e-09    1.421e-08    3.553e-06  
  2.6000e-02    2.409e-11    1.087e-09    3.553e-08   -1.066e-05  
  2.7000e-02    2.524e-11    1.119e-09    1.421e-08    2.132e-05  
  2.8000e-02    2.641e-11    1.151e-09    3.197e-08   -2.132e-05  
  2.9000e-02    2.763e-11    1.176e-09    3.197e-08    1.776e-05  
  3.0000e-02    2.887e-11    1.215e-09    2.487e-08      0.       
  3.1000e-02    3.015e-11    1.243e-09    3.908e-08   -7.105e-06  
  3.2000e-02    3.147e-11    1.275e-09    2.842e-08    1.421e-05  
  3.3000e-02    3.283e-11    1.325e-09    3.197e-08   -1.066e-05  
  3.4000e-02    3.423e-11    1.354e-09    4.974e-08    3.553e-06  
  3.5000e-02    3.569e-11    1.407e-09    2.842e-08    1.776e-05  
  3.6000e-02    3.719e-11    1.457e-09    5.329e-08   -2.132e-05  
  3.7000e-02    3.872e-11    1.499e-09    4.974e-08    2.487e-05  
  3.8000e-02    4.032e-11    1.528e-09    4.263e-08   -3.553e-06  
  3.9000e-02    4.196e-11    1.599e-09    2.842e-08   -7.105e-06  
  4.0000e-02    4.367e-11    1.641e-09    7.105e-08   -1.421e-05  
  4.1000e-02    4.542e-11    1.712e-09    4.263e-08    4.263e-05  
  4.2000e-02    4.725e-11    1.755e-09    7.105e-08   -2.842e-05  
  4.3000e-02    4.913e-11    1.826e-09    4.263e-08    2.842e-05  
  4.4000e-02    5.108e-11    1.876e-09    7.105e-08   -2.842e-05  
  4.5000e-02    5.310e-11    1.954e-09    4.974e-08    2.842e-05  
  4.6000e-02    5.519e-11    2.018e-09    7.816e-08   -2.132e-05  
  4.7000e-02    5.734e-11    2.089e-09    6.395e-08    2.842e-05  
  4.8000e-02    5.959e-11    2.153e-09    7.105e-08   -1.421e-05  
  4.9000e-02    6.191e-11    2.245e-09    6.395e-08    7.105e-06  
  5.0000e-02    6.430e-11    2.323e-09    9.237e-08   -7.105e-06  
  5.1000e-02    6.680e-11    2.395e-09    7.816e-08    2.842e-05  
  5.2000e-02    6.938e-11    2.494e-09    7.105e-08   -1.421e-05  
  5.3000e-02    7.204e-11    2.579e-09    9.948e-08   -7.105e-06  
  5.4000e-02    7.480e-11    2.665e-09    8.527e-08    2.842e-05  
  5.5000e-02    7.768e-11    2.757e-09    8.527e-08   -1.421e-05  
  5.6000e-02    8.064e-11    2.878e-09    9.237e-08    4.103e-19  
  5.7000e-02    8.372e-11    2.963e-09    1.208e-07    7.105e-06  
  5.8000e-02    8.692e-11    3.077e-09    8.527e-08    2.842e-05  
  5.9000e-02    9.022e-11    3.205e-09    1.137e-07   -3.553e-05  
  6.0000e-02    9.365e-11    3.304e-09    1.279e-07    2.842e-05  
  6.1000e-02    9.720e-11    3.425e-09    9.948e-08    1.421e-05  
  6.2000e-02    1.009e-10    3.546e-09    1.208e-07   -2.842e-05  
  6.3000e-02    1.047e-10    3.674e-09    1.208e-07    2.132e-05  
  6.4000e-02    1.087e-10    3.844e-09    1.279e-07   -4.235e-19  
  6.5000e-02    1.128e-10    3.951e-09    1.705e-07    7.105e-06  
  6.6000e-02    1.170e-10    4.100e-09    1.066e-07    4.263e-05  
  6.7000e-02    1.214e-10    4.263e-09    1.492e-07   -6.395e-05  
  6.8000e-02    1.260e-10    4.405e-09    1.634e-07    4.263e-05  
  6.9000e-02    1.307e-10    4.547e-09    1.421e-07    1.421e-05  
  7.0000e-02    1.356e-10    4.746e-09    1.421e-07   -2.132e-05  
  7.1000e-02    1.407e-10    4.917e-09    1.990e-07      0.       
  7.2000e-02    1.460e-10    5.102e-09    1.705e-07    5.684e-05  
  7.3000e-02    1.515e-10    5.286e-09    1.847e-07   -2.842e-05  
  7.4000e-02    1.572e-10    5.457e-09    1.847e-07    1.421e-05  
  7.5000e-02    1.631e-10    5.684e-09    1.705e-07   -8.206e-19  
  7.6000e-02    1.692e-10    5.898e-09    2.274e-07   -1.421e-05  
  7.7000e-02    1.755e-10    6.082e-09    2.132e-07    5.684e-05  
  7.8000e-02    1.821e-10    6.352e-09    1.847e-07   -1.421e-05  
  7.9000e-02    1.888e-10    6.551e-09    2.700e-07   -2.842e-05  
  8.0000e-02    1.959e-10    6.779e-09    1.990e-07    8.527e-05  
  8.1000e-02    2.032e-10    7.063e-09    2.274e-07   -7.105e-05  
  8.2000e-02    2.108e-10    7.319e-09    2.842e-07    2.842e-05  
  8.3000e-02    2.186e-10    7.574e-09    2.558e-07    5.684e-05  
  8.4000e-02    2.268e-10    7.844e-09    2.558e-07   -2.842e-05  
  8.5000e-02    2.352e-10    8.157e-09    2.700e-07      0.       
  8.6000e-02    2.440e-10    8.441e-09    3.126e-07    1.421e-05  
  8.7000e-02    2.531e-10    8.754e-09    2.842e-07    4.263e-05  
  8.8000e-02    2.625e-10    9.095e-09    3.126e-07   -2.842e-05  
  8.9000e-02    2.723e-10    9.422e-09    3.411e-07    2.842e-05  
  9.0000e-02    2.823e-10    9.749e-09    3.268e-07    2.842e-05  
  9.1000e-02    2.929e-10    1.009e-08    3.268e-07   -1.421e-05  
  9.2000e-02    3.037e-10    1.053e-08    3.411e-07      0.       
  9.3000e-02    3.150e-10    1.086e-08    4.405e-07    1.421e-05  
  9.4000e-02    3.267e-10    1.128e-08    3.268e-07    9.948e-05  
  9.5000e-02    3.388e-10    1.170e-08    4.263e-07   -1.137e-04  
  9.6000e-02    3.514e-10    1.214e-08    4.121e-07    9.948e-05  
  9.7000e-02    3.644e-10    1.255e-08    4.405e-07   -1.421e-05  
  9.8000e-02    3.779e-10    1.303e-08    4.121e-07    2.842e-05  
  9.9000e-02    3.919e-10    1.349e-08    4.832e-07   -2.842e-05  
    0.10000     4.064e-10    1.404e-08    4.547e-07    7.105e-05  
y
x

        volt    param      
                    gx4    
   -0.10000       0.       
 -9.9000e-02      0.       
 -9.8000e-02      0.       
 -9.7000e-02      0.       
 -9.6000e-02   -406.4304   
 -9.5000e-02    1.233e+03  
 -9.4000e-02   -1.248e+03  
 -9.3000e-02    421.3234   
 -9.2000e-02      0.1563   
 -9.1000e-02   -9.948e-02  
 -9.0000e-02    4.263e-02  
 -8.9000e-02   -1.421e-02  
 -8.8000e-02   -9.197e-15  
 -8.7000e-02   -2.842e-02  
 -8.6000e-02      0.1137   
 -8.5000e-02     -0.2274   
 -8.4000e-02      0.2842   
 -8.3000e-02     -0.2274   
 -8.2000e-02      0.1279   
 -8.1000e-02   -8.527e-02  
 -8.0000e-02    4.263e-02  
 -7.9000e-02    4.263e-02  
 -7.8000e-02   -8.527e-02  
 -7.7000e-02    4.263e-02  
 -7.6000e-02    2.842e-02  
 -7.5000e-02   -9.948e-02  
 -7.4000e-02      0.1279   
 -7.3000e-02   -9.948e-02  
 -7.2000e-02    7.105e-02  
 -7.1000e-02   -7.105e-02  
 -7.0000e-02    4.263e-02  
 -6.9000e-02    4.263e-02  
 -6.8000e-02     -0.1279   
 -6.7000e-02      0.1421   
 -6.6000e-02   -7.105e-02  
 -6.5000e-02   -5.684e-02  
 -6.4000e-02      0.1563   
 -6.3000e-02     -0.1705   
 -6.2000e-02    9.948e-02  
 -6.1000e-02    1.421e-02  
 -6.0000e-02   -7.816e-02  
 -5.9000e-02    5.684e-02  
 -5.8000e-02   -1.421e-02  
 -5.7000e-02   -1.421e-02  
 -5.6000e-02    1.421e-02  
 -5.5000e-02    1.421e-02  
 -5.4000e-02   -2.842e-02  
 -5.3000e-02    1.421e-02  
 -5.2000e-02   -2.842e-02  
 -5.1000e-02    7.105e-02  
 -5.0000e-02   -6.395e-02  
 -4.9000e-02   -7.105e-03  
 -4.8000e-02    5.684e-02  
 -4.7000e-02   -4.974e-02  
 -4.6000e-02    3.553e-02  
 -4.5000e-02   -3.553e-02  
 -4.4000e-02    1.421e-02  
 -4.3000e-02    3.553e-02  
 -4.2000e-02   -7.816e-02  
 -4.1000e-02    7.105e-02  
 -4.0000e-02   -1.421e-02  
 -3.9000e-02   -3.553e-02  
 -3.8000e-02    3.553e-02  
 -3.7000e-02    1.370e-14  
 -3.6000e-02   -4.263e-02  
 -3.5000e-02    5.684e-02  
 -3.4000e-02   -4.263e-02  
 -3.3000e-02    3.553e-02  
 -3.2000e-02   -4.263e-02  
 -3.1000e-02    3.553e-02  
 -3.0000e-02    1.421e-02  
 -2.9000e-02   -7.105e-02  
 -2.8000e-02    6.750e-02  
 -2.7000e-02   -2.132e-02  
 -2.6000e-02   -1.776e-02  
 -2.5000e-02    3.908e-02  
 -2.4000e-02   -4.263e-02  
 -2.3000e-02    2.842e-02  
 -2.2000e-02   -3.553e-03  
 -2.1000e-02   -1.776e-02  
 -2.0000e-02    2.842e-02  
 -1.9000e-02   -3.908e-02  
 -1.8000e-02    4.619e-02  
 -1.7000e-02   -3.197e-02  
 -1.6000e-02    7.105e-03  
 -1.5000e-02   -3.553e-03  
 -1.4000e-02    1.776e-02  
 -1.3000e-02   -2.487e-02  
 -1.2000e-02    1.776e-02  
 -1.1000e-02   -1.776e-03  
 -1.0000e-02   -1.066e-02  
 -9.0000e-03    1.066e-02  
 -8.0000e-03   -7.105e-03  
 -7.0000e-03    5.329e-03  
 -6.0000e-03    3.553e-03  
 -5.0000e-03   -2.309e-02  
 -4.0000e-03    3.197e-02  
 -3.0000e-03   -2.043e-02  
 -2.0000e-03    5.329e-03  
 -1.0000e-03      0.       
    0.         -1.332e-03  
  1.0000e-03    3.109e-03  
  2.0000e-03   -4.219e-03  
  3.0000e-03    2.109e-03  
  4.0000e-03    4.441e-04  
  5.0000e-03   -5.551e-04  
  6.0000e-03    1.247e-15  
  7.0000e-03    9.992e-04  
  8.0000e-03   -2.220e-03  
  9.0000e-03    5.551e-04  
  1.0000e-02    2.442e-03  
  1.1000e-02   -1.776e-03  
  1.2000e-02   -4.441e-04  
  1.3000e-02   -1.776e-03  
  1.4000e-02    5.329e-03  
  1.5000e-02   -1.025e-16  
  1.6000e-02   -8.882e-03  
  1.7000e-02    8.882e-03  
  1.8000e-02      0.       
  1.9000e-02   -3.553e-03  
  2.0000e-02      0.       
  2.1000e-02      0.       
  2.2000e-02    7.105e-03  
  2.3000e-02   -7.105e-03  
  2.4000e-02   -7.105e-03  
  2.5000e-02    1.776e-02  
  2.6000e-02   -7.105e-03  
  2.7000e-02   -1.421e-02  
  2.8000e-02    3.197e-02  
  2.9000e-02   -4.263e-02  
  3.0000e-02    3.908e-02  
  3.1000e-02   -1.776e-02  
  3.2000e-02   -7.105e-03  
  3.3000e-02    2.132e-02  
  3.4000e-02   -2.487e-02  
  3.5000e-02    1.421e-02  
  3.6000e-02    1.421e-02  
  3.7000e-02   -3.908e-02  
  3.8000e-02    4.619e-02  
  3.9000e-02   -2.842e-02  
  4.0000e-02   -3.553e-03  
  4.1000e-02   -7.105e-03  
  4.2000e-02    5.684e-02  
  4.3000e-02   -7.105e-02  
  4.4000e-02    5.684e-02  
  4.5000e-02   -5.684e-02  
  4.6000e-02    5.684e-02  
  4.7000e-02   -4.974e-02  
  4.8000e-02    4.974e-02  
  4.9000e-02   -4.263e-02  
  5.0000e-02    2.132e-02  
  5.1000e-02   -1.421e-02  
  5.2000e-02    3.553e-02  
  5.3000e-02   -4.263e-02  
  5.4000e-02    7.105e-03  
  5.5000e-02    3.553e-02  
  5.6000e-02   -4.263e-02  
  5.7000e-02    1.421e-02  
  5.8000e-02    7.105e-03  
  5.9000e-02    2.132e-02  
  6.0000e-02   -6.395e-02  
  6.1000e-02    6.395e-02  
  6.2000e-02   -1.421e-02  
  6.3000e-02   -4.263e-02  
  6.4000e-02    4.974e-02  
  6.5000e-02   -2.132e-02  
  6.6000e-02    7.105e-03  
  6.7000e-02    3.553e-02  
  6.8000e-02     -0.1066   
  6.9000e-02      0.1066   
  7.0000e-02   -2.842e-02  
  7.1000e-02   -3.553e-02  
  7.2000e-02    2.132e-02  
  7.3000e-02    5.684e-02  
  7.4000e-02   -8.527e-02  
  7.5000e-02    4.263e-02  
  7.6000e-02   -1.421e-02  
  7.7000e-02   -1.421e-02  
  7.8000e-02    7.105e-02  
  7.9000e-02   -7.105e-02  
  8.0000e-02   -1.421e-02  
  8.1000e-02      0.1137   
  8.2000e-02     -0.1563   
  8.3000e-02    9.948e-02  
  8.4000e-02    2.842e-02  
  8.5000e-02   -8.527e-02  
  8.6000e-02    2.842e-02  
  8.7000e-02    1.421e-02  
  8.8000e-02    2.842e-02  
  8.9000e-02   -7.105e-02  
  9.0000e-02    5.684e-02  
  9.1000e-02   -1.694e-15  
  9.2000e-02   -4.263e-02  
  9.3000e-02    1.421e-02  
  9.4000e-02    1.421e-02  
  9.5000e-02    8.527e-02  
  9.6000e-02     -0.2132   
  9.7000e-02      0.2132   
  9.8000e-02     -0.1137   
  9.9000e-02    4.263e-02  
    0.10000    -5.684e-02  
y
-----------------------------------------------
 ******  
 *sample netlist for bsim-mg

  ******  dc transfer curves tnom=  25.000 temp=  25.000 *****

   *** source        0:vgate =   -0.2000        ***

x

        volt    param        param        param        param      
                    ids          gx           gx2          gx3    
   -0.10000    -3.181e-07   -4.064e-09   -1.404e-07   -4.547e-06  
 -9.9000e-02   -3.078e-07   -3.185e-04   -1.810e-05   -5.952e-04  
 -9.8000e-02   -2.977e-07    1.035e-05     -0.3185    -1.796e-02  
 -9.7000e-02   -2.880e-07    1.004e-05      0.3289    -318.5008   
 -9.6000e-02   -2.786e-07    9.732e-06   -3.149e-04    647.3952   
 -9.5000e-02   -2.694e-07    9.434e-06   -3.064e-04   -329.1912   
 -9.4000e-02   -2.606e-07    9.144e-06   -2.980e-04    8.541e-03  
 -9.3000e-02   -2.520e-07    8.863e-06   -2.897e-04    8.413e-03  
 -9.2000e-02   -2.436e-07    8.589e-06   -2.817e-04    8.228e-03  
 -9.1000e-02   -2.356e-07    8.323e-06   -2.738e-04    7.987e-03  
 -9.0000e-02   -2.278e-07    8.064e-06   -2.662e-04    7.915e-03  
 -8.9000e-02   -2.202e-07    7.813e-06   -2.587e-04    7.617e-03  
 -8.8000e-02   -2.129e-07    7.568e-06   -2.513e-04    7.546e-03  
 -8.7000e-02   -2.058e-07    7.331e-06   -2.442e-04    7.319e-03  
 -8.6000e-02   -1.989e-07    7.101e-06   -2.372e-04    7.134e-03  
 -8.5000e-02   -1.922e-07    6.877e-06   -2.304e-04    7.063e-03  
 -8.4000e-02   -1.858e-07    6.660e-06   -2.237e-04    6.722e-03  
 -8.3000e-02   -1.795e-07    6.449e-06   -2.172e-04    6.750e-03  
 -8.2000e-02   -1.735e-07    6.244e-06   -2.109e-04    6.466e-03  
 -8.1000e-02   -1.676e-07    6.046e-06   -2.047e-04    6.338e-03  
 -8.0000e-02   -1.620e-07    5.853e-06   -1.987e-04    6.168e-03  
 -7.9000e-02   -1.565e-07    5.666e-06   -1.928e-04    6.040e-03  
 -7.8000e-02   -1.512e-07    5.484e-06   -1.870e-04    5.898e-03  
 -7.7000e-02   -1.460e-07    5.308e-06   -1.815e-04    5.727e-03  
 -7.6000e-02   -1.411e-07    5.138e-06   -1.760e-04    5.571e-03  
 -7.5000e-02   -1.363e-07    4.972e-06   -1.708e-04    5.471e-03  
 -7.4000e-02   -1.316e-07    4.811e-06   -1.655e-04    5.230e-03  
 -7.3000e-02   -1.271e-07    4.656e-06   -1.606e-04    5.272e-03  
 -7.2000e-02   -1.227e-07    4.505e-06   -1.556e-04    4.903e-03  
 -7.1000e-02   -1.185e-07    4.359e-06   -1.509e-04    5.002e-03  
 -7.0000e-02   -1.144e-07    4.217e-06   -1.463e-04    4.732e-03  
 -6.9000e-02   -1.105e-07    4.080e-06   -1.417e-04    4.604e-03  
 -6.8000e-02   -1.067e-07    3.947e-06   -1.373e-04    4.576e-03  
 -6.7000e-02   -1.030e-07    3.818e-06   -1.330e-04    4.334e-03  
 -6.6000e-02   -9.941e-08    3.693e-06   -1.289e-04    4.349e-03  
 -6.5000e-02   -9.595e-08    3.572e-06   -1.249e-04    4.093e-03  
 -6.4000e-02   -9.261e-08    3.455e-06   -1.209e-04    4.050e-03  
 -6.3000e-02   -8.938e-08    3.342e-06   -1.171e-04    3.993e-03  
 -6.2000e-02   -8.626e-08    3.232e-06   -1.134e-04    3.780e-03  
 -6.1000e-02   -8.323e-08    3.126e-06   -1.097e-04    3.730e-03  
 -6.0000e-02   -8.031e-08    3.023e-06   -1.062e-04    3.610e-03  
 -5.9000e-02   -7.748e-08    2.923e-06   -1.028e-04    3.546e-03  
 -5.8000e-02   -7.475e-08    2.827e-06   -9.945e-05    3.396e-03  
 -5.7000e-02   -7.210e-08    2.734e-06   -9.624e-05    3.347e-03  
 -5.6000e-02   -6.955e-08    2.644e-06   -9.305e-05    3.212e-03  
 -5.5000e-02   -6.707e-08    2.557e-06   -9.005e-05    3.190e-03  
 -5.4000e-02   -6.468e-08    2.473e-06   -8.706e-05    3.006e-03  
 -5.3000e-02   -6.237e-08    2.392e-06   -8.417e-05    2.991e-03  
 -5.2000e-02   -6.013e-08    2.313e-06   -8.135e-05    2.885e-03  
 -5.1000e-02   -5.797e-08    2.237e-06   -7.864e-05    2.821e-03  
 -5.0000e-02   -5.588e-08    2.164e-06   -7.595e-05    2.714e-03  
 -4.9000e-02   -5.385e-08    2.093e-06   -7.338e-05    2.686e-03  
 -4.8000e-02   -5.189e-08    2.024e-06   -7.087e-05    2.565e-03  
 -4.7000e-02   -5.000e-08    1.958e-06   -6.844e-05    2.515e-03  
 -4.6000e-02   -4.817e-08    1.895e-06   -6.602e-05    2.430e-03  
 -4.5000e-02   -4.639e-08    1.833e-06   -6.371e-05    2.416e-03  
 -4.4000e-02   -4.468e-08    1.774e-06   -6.150e-05    2.309e-03  
 -4.3000e-02   -4.301e-08    1.717e-06   -5.925e-05    2.217e-03  
 -4.2000e-02   -4.141e-08    1.662e-06   -5.712e-05    2.252e-03  
 -4.1000e-02   -3.985e-08    1.609e-06   -5.503e-05    2.125e-03  
 -4.0000e-02   -3.834e-08    1.558e-06   -5.301e-05    2.089e-03  
 -3.9000e-02   -3.688e-08    1.509e-06   -5.100e-05    2.025e-03  
 -3.8000e-02   -3.546e-08    1.461e-06   -4.906e-05    2.011e-03  
 -3.7000e-02   -3.409e-08    1.416e-06   -4.717e-05    1.940e-03  
 -3.6000e-02   -3.276e-08    1.373e-06   -4.529e-05    1.890e-03  
 -3.5000e-02   -3.147e-08    1.331e-06   -4.351e-05    1.876e-03  
 -3.4000e-02   -3.021e-08    1.291e-06   -4.169e-05    1.783e-03  
 -3.3000e-02   -2.900e-08    1.253e-06   -3.996e-05    1.819e-03  
 -3.2000e-02   -2.782e-08    1.216e-06   -3.825e-05    1.727e-03  
 -3.1000e-02   -2.667e-08    1.181e-06   -3.655e-05    1.712e-03  
 -3.0000e-02   -2.555e-08    1.148e-06   -3.494e-05    1.698e-03  
 -2.9000e-02   -2.447e-08    1.116e-06   -3.326e-05    1.613e-03  
 -2.8000e-02   -2.341e-08    1.086e-06   -3.171e-05    1.677e-03  
 -2.7000e-02   -2.238e-08    1.058e-06   -3.011e-05    1.553e-03  
 -2.6000e-02   -2.137e-08    1.031e-06   -2.859e-05    1.602e-03  
 -2.5000e-02   -2.039e-08    1.005e-06   -2.704e-05    1.521e-03  
 -2.4000e-02   -1.943e-08    9.809e-07   -2.555e-05    1.549e-03  
 -2.3000e-02   -1.850e-08    9.583e-07   -2.406e-05    1.489e-03  
 -2.2000e-02   -1.758e-08    9.371e-07   -2.261e-05    1.492e-03  
 -2.1000e-02   -1.668e-08    9.174e-07   -2.117e-05    1.442e-03  
 -2.0000e-02   -1.580e-08    8.990e-07   -1.976e-05    1.446e-03  
 -1.9000e-02   -1.493e-08    8.820e-07   -1.837e-05    1.407e-03  
 -1.8000e-02   -1.408e-08    8.663e-07   -1.701e-05    1.393e-03  
 -1.7000e-02   -1.324e-08    8.520e-07   -1.567e-05    1.357e-03  
 -1.6000e-02   -1.241e-08    8.389e-07   -1.437e-05    1.343e-03  
 -1.5000e-02   -1.160e-08    8.270e-07   -1.308e-05    1.293e-03  
 -1.4000e-02   -1.079e-08    8.164e-07   -1.185e-05    1.297e-03  
 -1.3000e-02   -9.993e-09    8.069e-07   -1.064e-05    1.227e-03  
 -1.2000e-02   -9.202e-09    7.986e-07   -9.472e-06    1.211e-03  
 -1.1000e-02   -8.417e-09    7.913e-07   -8.363e-06    1.167e-03  
 -1.0000e-02   -7.637e-09    7.849e-07   -7.301e-06    1.108e-03  
 -9.0000e-03   -6.862e-09    7.795e-07   -6.313e-06    1.062e-03  
 -8.0000e-03   -6.091e-09    7.750e-07   -5.402e-06    9.877e-04  
 -7.0000e-03   -5.323e-09    7.711e-07   -4.562e-06    9.113e-04  
 -6.0000e-03   -4.558e-09    7.680e-07   -3.830e-06    8.402e-04  
 -5.0000e-03   -3.795e-09    7.653e-07   -3.181e-06    7.319e-04  
 -4.0000e-03   -3.033e-09    7.631e-07   -2.639e-06    6.493e-04  
 -3.0000e-03   -2.274e-09    7.613e-07   -2.179e-06    5.418e-04  
 -2.0000e-03   -1.515e-09    7.599e-07   -1.803e-06    4.601e-04  
 -1.0000e-03   -7.572e-10    7.586e-07   -1.489e-06    3.761e-04  
    0.          1.271e-14    7.577e-07   -1.208e-06    3.131e-04  
  1.0000e-03    7.572e-10    7.572e-07   -9.182e-07    2.818e-04  
  2.0000e-03    1.515e-09    7.572e-07   -5.546e-07    2.895e-04  
  3.0000e-03    2.274e-09    7.577e-07    3.316e-10    3.635e-04  
  4.0000e-03    3.033e-09    7.586e-07    5.541e-07    5.549e-04  
  5.0000e-03    3.795e-09    7.599e-07    9.186e-07    5.537e-04  
  6.0000e-03    4.558e-09    7.613e-07    1.207e-06    3.645e-04  
  7.0000e-03    5.323e-09    7.631e-07    1.489e-06    2.884e-04  
  8.0000e-03    6.091e-09    7.653e-07    1.805e-06    2.816e-04  
  9.0000e-03    6.862e-09    7.680e-07    2.180e-06    3.162e-04  
  1.0000e-02    7.637e-09    7.711e-07    2.633e-06    3.757e-04  
  1.1000e-02    8.417e-09    7.750e-07    3.185e-06    4.530e-04  
  1.2000e-02    9.202e-09    7.795e-07    3.826e-06    5.516e-04  
  1.3000e-02    9.993e-09    7.849e-07    4.571e-06    6.413e-04  
  1.4000e-02    1.079e-08    7.913e-07    5.389e-06    7.443e-04  
  1.5000e-02    1.160e-08    7.986e-07    6.317e-06    8.189e-04  
  1.6000e-02    1.241e-08    8.069e-07    7.304e-06    9.273e-04  
  1.7000e-02    1.324e-08    8.164e-07    8.358e-06    9.877e-04  
  1.8000e-02    1.408e-08    8.270e-07    9.475e-06    1.053e-03  
  1.9000e-02    1.493e-08    8.389e-07    1.065e-05    1.117e-03  
  2.0000e-02    1.580e-08    8.520e-07    1.184e-05    1.172e-03  
  2.1000e-02    1.668e-08    8.663e-07    1.308e-05    1.190e-03  
  2.2000e-02    1.758e-08    8.820e-07    1.437e-05    1.243e-03  
  2.3000e-02    1.850e-08    8.990e-07    1.566e-05    1.293e-03  
  2.4000e-02    1.943e-08    9.174e-07    1.701e-05    1.290e-03  
  2.5000e-02    2.039e-08    9.371e-07    1.837e-05    1.350e-03  
  2.6000e-02    2.137e-08    9.583e-07    1.975e-05    1.357e-03  
  2.7000e-02    2.238e-08    9.809e-07    2.118e-05    1.382e-03  
  2.8000e-02    2.341e-08    1.005e-06    2.260e-05    1.425e-03  
  2.9000e-02    2.447e-08    1.031e-06    2.407e-05    1.418e-03  
  3.0000e-02    2.555e-08    1.058e-06    2.554e-05    1.474e-03  
  3.1000e-02    2.667e-08    1.086e-06    2.704e-05    1.474e-03  
  3.2000e-02    2.782e-08    1.116e-06    2.858e-05    1.492e-03  
  3.3000e-02    2.900e-08    1.148e-06    3.012e-05    1.542e-03  
  3.4000e-02    3.021e-08    1.181e-06    3.169e-05    1.542e-03  
  3.5000e-02    3.147e-08    1.216e-06    3.329e-05    1.567e-03  
  3.6000e-02    3.276e-08    1.253e-06    3.492e-05    1.606e-03  
  3.7000e-02    3.409e-08    1.291e-06    3.654e-05    1.627e-03  
  3.8000e-02    3.546e-08    1.331e-06    3.826e-05    1.624e-03  
  3.9000e-02    3.688e-08    1.373e-06    3.995e-05    1.720e-03  
  4.0000e-02    3.834e-08    1.416e-06    4.169e-05    1.691e-03  
  4.1000e-02    3.985e-08    1.461e-06    4.350e-05    1.734e-03  
  4.2000e-02    4.141e-08    1.509e-06    4.530e-05    1.812e-03  
  4.3000e-02    4.301e-08    1.558e-06    4.716e-05    1.805e-03  
  4.4000e-02    4.468e-08    1.609e-06    4.906e-05    1.855e-03  
  4.5000e-02    4.639e-08    1.662e-06    5.100e-05    1.897e-03  
  4.6000e-02    4.817e-08    1.717e-06    5.299e-05    1.947e-03  
  4.7000e-02    5.000e-08    1.774e-06    5.505e-05    1.982e-03  
  4.8000e-02    5.189e-08    1.833e-06    5.711e-05    2.061e-03  
  4.9000e-02    5.385e-08    1.894e-06    5.929e-05    2.068e-03  
  5.0000e-02    5.588e-08    1.958e-06    6.143e-05    2.174e-03  
  5.1000e-02    5.797e-08    2.024e-06    6.375e-05    2.146e-03  
  5.2000e-02    6.013e-08    2.093e-06    6.603e-05    2.316e-03  
  5.3000e-02    6.237e-08    2.164e-06    6.842e-05    2.281e-03  
  5.4000e-02    6.468e-08    2.237e-06    7.086e-05    2.387e-03  
  5.5000e-02    6.707e-08    2.313e-06    7.341e-05    2.444e-03  
  5.6000e-02    6.955e-08    2.392e-06    7.594e-05    2.544e-03  
  5.7000e-02    7.210e-08    2.473e-06    7.864e-05    2.537e-03  
  5.8000e-02    7.475e-08    2.557e-06    8.134e-05    2.700e-03  
  5.9000e-02    7.748e-08    2.644e-06    8.419e-05    2.693e-03  
  6.0000e-02    8.031e-08    2.734e-06    8.703e-05    2.856e-03  
  6.1000e-02    8.323e-08    2.827e-06    9.005e-05    2.835e-03  
  6.2000e-02    8.626e-08    2.923e-06    9.307e-05    3.020e-03  
  6.3000e-02    8.938e-08    3.023e-06    9.625e-05    3.027e-03  
  6.4000e-02    9.261e-08    3.126e-06    9.944e-05    3.176e-03  
  6.5000e-02    9.595e-08    3.232e-06    1.028e-04    3.190e-03  
  6.6000e-02    9.941e-08    3.342e-06    1.062e-04    3.340e-03  
  6.7000e-02    1.030e-07    3.455e-06    1.097e-04    3.467e-03  
  6.8000e-02    1.067e-07    3.572e-06    1.134e-04    3.467e-03  
  6.9000e-02    1.105e-07    3.693e-06    1.171e-04    3.638e-03  
  7.0000e-02    1.144e-07    3.818e-06    1.209e-04    3.702e-03  
  7.1000e-02    1.185e-07    3.947e-06    1.248e-04    3.880e-03  
  7.2000e-02    1.227e-07    4.080e-06    1.289e-04    3.837e-03  
  7.3000e-02    1.271e-07    4.217e-06    1.331e-04    4.164e-03  
  7.4000e-02    1.316e-07    4.359e-06    1.373e-04    4.121e-03  
  7.5000e-02    1.363e-07    4.505e-06    1.417e-04    4.221e-03  
  7.6000e-02    1.411e-07    4.656e-06    1.462e-04    4.462e-03  
  7.7000e-02    1.460e-07    4.811e-06    1.508e-04    4.491e-03  
  7.8000e-02    1.512e-07    4.972e-06    1.557e-04    4.604e-03  
  7.9000e-02    1.565e-07    5.138e-06    1.605e-04    4.832e-03  
  8.0000e-02    1.620e-07    5.308e-06    1.656e-04    4.860e-03  
  8.1000e-02    1.676e-07    5.484e-06    1.707e-04    5.031e-03  
  8.2000e-02    1.735e-07    5.666e-06    1.760e-04    5.159e-03  
  8.3000e-02    1.795e-07    5.853e-06    1.814e-04    5.329e-03  
  8.4000e-02    1.858e-07    6.046e-06    1.871e-04    5.386e-03  
  8.5000e-02    1.922e-07    6.244e-06    1.927e-04    5.670e-03  
  8.6000e-02    1.989e-07    6.449e-06    1.987e-04    5.642e-03  
  8.7000e-02    2.058e-07    6.660e-06    2.047e-04    5.940e-03  
  8.8000e-02    2.129e-07    6.877e-06    2.109e-04    5.997e-03  
  8.9000e-02    2.202e-07    7.101e-06    2.172e-04    6.210e-03  
  9.0000e-02    2.278e-07    7.331e-06    2.237e-04    6.295e-03  
  9.1000e-02    2.356e-07    7.568e-06    2.304e-04    6.551e-03  
  9.2000e-02    2.436e-07    7.813e-06    2.372e-04    6.651e-03  
  9.3000e-02    2.520e-07    8.064e-06    2.442e-04    6.807e-03  
  9.4000e-02    2.606e-07    8.323e-06    2.513e-04    6.978e-03  
  9.5000e-02    2.694e-07    8.589e-06    2.587e-04    7.176e-03  
  9.6000e-02    2.786e-07    8.863e-06    2.662e-04    7.361e-03  
  9.7000e-02    2.880e-07    9.144e-06    2.738e-04    7.461e-03  
  9.8000e-02    2.977e-07    9.434e-06    2.818e-04    7.660e-03  
  9.9000e-02    3.078e-07    9.732e-06    2.897e-04    7.930e-03  
    0.10000     3.181e-07    1.004e-05    2.979e-04    7.987e-03  
y
x

        volt    param      
                    gx4    
   -0.10000    -7.105e-04  
 -9.9000e-02   -7.560e-02  
 -9.8000e-02     -0.5906   
 -9.7000e-02    -17.3692   
 -9.6000e-02   -3.184e+05  
 -9.5000e-02    9.659e+05  
 -9.4000e-02   -9.765e+05  
 -9.3000e-02    3.292e+05  
 -9.2000e-02     -0.1279   
 -9.1000e-02     -0.1847   
 -9.0000e-02     -0.2416   
 -8.9000e-02   -7.105e-02  
 -8.8000e-02     -0.2984   
 -8.7000e-02   -7.105e-02  
 -8.6000e-02     -0.2274   
 -8.5000e-02     -0.1847   
 -8.4000e-02   -7.105e-02  
 -8.3000e-02     -0.3411   
 -8.2000e-02    2.842e-02  
 -8.1000e-02     -0.2842   
 -8.0000e-02     -0.1279   
 -7.9000e-02     -0.1705   
 -7.8000e-02     -0.1279   
 -7.7000e-02     -0.1421   
 -7.6000e-02     -0.1705   
 -7.5000e-02     -0.1563   
 -7.4000e-02   -9.948e-02  
 -7.3000e-02     -0.2416   
 -7.2000e-02    4.263e-02  
 -7.1000e-02     -0.3695   
 -7.0000e-02    9.948e-02  
 -6.9000e-02     -0.2700   
 -6.8000e-02     -0.1279   
 -6.7000e-02   -2.842e-02  
 -6.6000e-02     -0.2416   
 -6.5000e-02    1.421e-02  
 -6.4000e-02     -0.2558   
 -6.3000e-02   -4.263e-02  
 -6.2000e-02   -5.684e-02  
 -6.1000e-02     -0.2132   
 -6.0000e-02   -4.974e-02  
 -5.9000e-02     -0.1208   
 -5.8000e-02   -6.395e-02  
 -5.7000e-02     -0.1492   
 -5.6000e-02   -4.974e-02  
 -5.5000e-02     -0.1350   
 -5.4000e-02   -2.132e-02  
 -5.3000e-02     -0.1847   
 -5.2000e-02   -1.421e-02  
 -5.1000e-02     -0.1066   
 -5.0000e-02   -6.395e-02  
 -4.9000e-02     -0.1066   
 -4.8000e-02   -2.842e-02  
 -4.7000e-02     -0.1208   
 -4.6000e-02   -4.974e-02  
 -4.5000e-02   -8.527e-02  
 -4.4000e-02   -1.421e-02  
 -4.3000e-02     -0.1066   
 -4.2000e-02   -9.237e-02  
 -4.1000e-02    3.553e-02  
 -4.0000e-02     -0.1279   
 -3.9000e-02   -3.553e-02  
 -3.8000e-02   -6.395e-02  
 -3.7000e-02   -1.421e-02  
 -3.6000e-02   -7.105e-02  
 -3.5000e-02   -4.974e-02  
 -3.4000e-02   -1.421e-02  
 -3.3000e-02   -9.237e-02  
 -3.2000e-02    3.553e-02  
 -3.1000e-02   -9.237e-02  
 -3.0000e-02   -1.421e-02  
 -2.9000e-02   -1.421e-02  
 -2.8000e-02   -8.527e-02  
 -2.7000e-02    6.395e-02  
 -2.6000e-02     -0.1243   
 -2.5000e-02    4.974e-02  
 -2.4000e-02   -8.171e-02  
 -2.3000e-02    2.842e-02  
 -2.2000e-02   -6.040e-02  
 -2.1000e-02    3.553e-03  
 -2.0000e-02   -4.974e-02  
 -1.9000e-02    3.553e-03  
 -1.8000e-02   -3.908e-02  
 -1.7000e-02   -1.421e-02  
 -1.6000e-02   -3.553e-02  
 -1.5000e-02   -1.421e-02  
 -1.4000e-02   -4.974e-02  
 -1.3000e-02    3.553e-03  
 -1.2000e-02   -6.928e-02  
 -1.1000e-02   -1.599e-02  
 -1.0000e-02   -4.441e-02  
 -9.0000e-03   -5.862e-02  
 -8.0000e-03   -4.619e-02  
 -7.0000e-03   -7.461e-02  
 -6.0000e-03   -7.638e-02  
 -5.0000e-03   -7.105e-02  
 -4.0000e-03     -0.1084   
 -3.0000e-03   -8.260e-02  
 -2.0000e-03     -0.1075   
 -1.0000e-03   -8.171e-02  
    0.         -8.393e-02  
  1.0000e-03   -6.306e-02  
  2.0000e-03   -3.131e-02  
  3.0000e-03    7.772e-03  
  4.0000e-03    7.400e-02  
  5.0000e-03      0.1914   
  6.0000e-03   -1.217e-03  
  7.0000e-03     -0.1892   
  8.0000e-03   -7.611e-02  
  9.0000e-03   -6.883e-03  
  1.0000e-02    3.464e-02  
  1.1000e-02    5.951e-02  
  1.2000e-02    7.727e-02  
  1.3000e-02    9.859e-02  
  1.4000e-02    8.971e-02  
  1.5000e-02      0.1030   
  1.6000e-02    7.461e-02  
  1.7000e-02      0.1084   
  1.8000e-02    6.040e-02  
  1.9000e-02    6.573e-02  
  2.0000e-02    6.395e-02  
  2.1000e-02    5.507e-02  
  2.2000e-02    1.776e-02  
  2.3000e-02    5.329e-02  
  2.4000e-02    4.974e-02  
  2.5000e-02   -3.553e-03  
  2.6000e-02    6.040e-02  
  2.7000e-02    7.105e-03  
  2.8000e-02    2.487e-02  
  2.9000e-02    4.263e-02  
  3.0000e-02   -7.105e-03  
  3.1000e-02    5.684e-02  
  3.2000e-02   -3.469e-15  
  3.3000e-02    1.776e-02  
  3.4000e-02    4.974e-02  
  3.5000e-02    4.235e-13  
  3.6000e-02    2.487e-02  
  3.7000e-02    3.908e-02  
  3.8000e-02    2.132e-02  
  3.9000e-02   -3.553e-03  
  4.0000e-02    9.592e-02  
  4.1000e-02   -2.842e-02  
  4.2000e-02    4.263e-02  
  4.3000e-02    7.816e-02  
  4.4000e-02   -7.105e-03  
  4.5000e-02    4.974e-02  
  4.6000e-02    4.263e-02  
  4.7000e-02    4.974e-02  
  4.8000e-02    3.553e-02  
  4.9000e-02    7.816e-02  
  5.0000e-02    7.105e-03  
  5.1000e-02      0.1066   
  5.2000e-02   -2.842e-02  
  5.3000e-02      0.1705   
  5.4000e-02   -3.553e-02  
  5.5000e-02      0.1066   
  5.6000e-02    5.684e-02  
  5.7000e-02    9.948e-02  
  5.8000e-02   -7.105e-03  
  5.9000e-02      0.1634   
  6.0000e-02   -7.105e-03  
  6.1000e-02      0.1634   
  6.2000e-02   -2.132e-02  
  6.3000e-02      0.1847   
  6.4000e-02    7.105e-03  
  6.5000e-02      0.1492   
  6.6000e-02    1.421e-02  
  6.7000e-02      0.1492   
  6.8000e-02      0.1279   
  6.9000e-02   -4.202e-13  
  7.0000e-02      0.1705   
  7.1000e-02    6.395e-02  
  7.2000e-02      0.1776   
  7.3000e-02   -4.263e-02  
  7.4000e-02      0.3268   
  7.5000e-02   -4.263e-02  
  7.6000e-02    9.948e-02  
  7.7000e-02      0.2416   
  7.8000e-02    2.842e-02  
  7.9000e-02      0.1137   
  8.0000e-02      0.2274   
  8.1000e-02    2.842e-02  
  8.2000e-02      0.1705   
  8.3000e-02      0.1279   
  8.4000e-02      0.1705   
  8.5000e-02    5.684e-02  
  8.6000e-02      0.2842   
  8.7000e-02   -2.842e-02  
  8.8000e-02      0.2984   
  8.9000e-02    5.684e-02  
  9.0000e-02      0.2132   
  9.1000e-02    8.527e-02  
  9.2000e-02      0.2558   
  9.3000e-02    9.948e-02  
  9.4000e-02      0.1563   
  9.5000e-02      0.1705   
  9.6000e-02      0.1990   
  9.7000e-02      0.1847   
  9.8000e-02    9.948e-02  
  9.9000e-02      0.1990   
    0.10000       0.2700   
y
-----------------------------------------------
 ******  
 *sample netlist for bsim-mg

  ******  dc transfer curves tnom=  25.000 temp=  25.000 *****

   *** source        0:vgate =   -0.4000        ***

x

        volt    param        param        param        param      
                    ids          gx           gx2          gx3    
   -0.10000    -2.144e-05   -3.181e-06   -1.004e-04   -2.979e-03  
 -9.9000e-02   -2.116e-05   -2.176e-02   -1.322e-02     -0.3983   
 -9.8000e-02   -2.087e-05    2.880e-04    -21.7585     -13.1192   
 -9.7000e-02   -2.059e-05    2.859e-04     22.0496    -2.174e+04  
 -9.6000e-02   -2.030e-05    2.838e-04   -2.079e-03    4.380e+04  
 -9.5000e-02   -2.002e-05    2.818e-04   -2.071e-03   -2.205e+04  
 -9.4000e-02   -1.975e-05    2.797e-04   -2.064e-03    7.148e-03  
 -9.3000e-02   -1.947e-05    2.777e-04   -2.057e-03    7.333e-03  
 -9.2000e-02   -1.920e-05    2.756e-04   -2.049e-03    7.404e-03  
 -9.1000e-02   -1.893e-05    2.736e-04   -2.041e-03    7.802e-03  
 -9.0000e-02   -1.866e-05    2.716e-04   -2.033e-03    7.859e-03  
 -8.9000e-02   -1.839e-05    2.696e-04   -2.024e-03    8.200e-03  
 -8.8000e-02   -1.812e-05    2.675e-04   -2.016e-03    8.328e-03  
 -8.7000e-02   -1.786e-05    2.655e-04   -2.007e-03    8.640e-03  
 -8.6000e-02   -1.760e-05    2.636e-04   -1.998e-03    8.868e-03  
 -8.5000e-02   -1.734e-05    2.616e-04   -1.988e-03    9.067e-03  
 -8.4000e-02   -1.708e-05    2.596e-04   -1.979e-03    9.479e-03  
 -8.3000e-02   -1.683e-05    2.577e-04   -1.969e-03    9.607e-03  
 -8.2000e-02   -1.657e-05    2.557e-04   -1.959e-03    9.962e-03  
 -8.1000e-02   -1.632e-05    2.538e-04   -1.948e-03    1.025e-02  
 -8.0000e-02   -1.607e-05    2.518e-04   -1.937e-03    1.062e-02  
 -7.9000e-02   -1.582e-05    2.499e-04   -1.926e-03    1.086e-02  
 -7.8000e-02   -1.558e-05    2.480e-04   -1.914e-03    1.127e-02  
 -7.7000e-02   -1.533e-05    2.461e-04   -1.902e-03    1.158e-02  
 -7.6000e-02   -1.509e-05    2.443e-04   -1.890e-03    1.195e-02  
 -7.5000e-02   -1.485e-05    2.424e-04   -1.877e-03    1.238e-02  
 -7.4000e-02   -1.461e-05    2.405e-04   -1.864e-03    1.269e-02  
 -7.3000e-02   -1.437e-05    2.387e-04   -1.850e-03    1.324e-02  
 -7.2000e-02   -1.414e-05    2.369e-04   -1.836e-03    1.354e-02  
 -7.1000e-02   -1.390e-05    2.351e-04   -1.822e-03    1.407e-02  
 -7.0000e-02   -1.367e-05    2.333e-04   -1.807e-03    1.451e-02  
 -6.9000e-02   -1.344e-05    2.315e-04   -1.791e-03    1.509e-02  
 -6.8000e-02   -1.322e-05    2.298e-04   -1.775e-03    1.548e-02  
 -6.7000e-02   -1.299e-05    2.280e-04   -1.759e-03    1.609e-02  
 -6.6000e-02   -1.276e-05    2.263e-04   -1.741e-03    1.668e-02  
 -6.5000e-02   -1.254e-05    2.246e-04   -1.723e-03    1.715e-02  
 -6.4000e-02   -1.232e-05    2.229e-04   -1.705e-03    1.792e-02  
 -6.3000e-02   -1.210e-05    2.212e-04   -1.686e-03    1.845e-02  
 -6.2000e-02   -1.188e-05    2.196e-04   -1.666e-03    1.916e-02  
 -6.1000e-02   -1.167e-05    2.180e-04   -1.645e-03    1.983e-02  
 -6.0000e-02   -1.145e-05    2.164e-04   -1.624e-03    2.056e-02  
 -5.9000e-02   -1.124e-05    2.148e-04   -1.602e-03    2.132e-02  
 -5.8000e-02   -1.103e-05    2.132e-04   -1.579e-03    2.211e-02  
 -5.7000e-02   -1.082e-05    2.117e-04   -1.555e-03    2.294e-02  
 -5.6000e-02   -1.061e-05    2.102e-04   -1.531e-03    2.379e-02  
 -5.5000e-02   -1.040e-05    2.087e-04   -1.505e-03    2.468e-02  
 -5.4000e-02   -1.019e-05    2.073e-04   -1.478e-03    2.564e-02  
 -5.3000e-02   -9.990e-06    2.058e-04   -1.451e-03    2.656e-02  
 -5.2000e-02   -9.787e-06    2.044e-04   -1.422e-03    2.758e-02  
 -5.1000e-02   -9.585e-06    2.031e-04   -1.393e-03    2.863e-02  
 -5.0000e-02   -9.385e-06    2.018e-04   -1.362e-03    2.971e-02  
 -4.9000e-02   -9.186e-06    2.005e-04   -1.330e-03    3.084e-02  
 -4.8000e-02   -8.988e-06    1.992e-04   -1.296e-03    3.198e-02  
 -4.7000e-02   -8.791e-06    1.980e-04   -1.262e-03    3.325e-02  
 -4.6000e-02   -8.595e-06    1.968e-04   -1.226e-03    3.444e-02  
 -4.5000e-02   -8.401e-06    1.956e-04   -1.189e-03    3.576e-02  
 -4.4000e-02   -8.207e-06    1.945e-04   -1.151e-03    3.706e-02  
 -4.3000e-02   -8.015e-06    1.934e-04   -1.111e-03    3.850e-02  
 -4.2000e-02   -7.823e-06    1.924e-04   -1.070e-03    3.980e-02  
 -4.1000e-02   -7.633e-06    1.914e-04   -1.027e-03    4.133e-02  
 -4.0000e-02   -7.443e-06    1.905e-04   -9.826e-04    4.275e-02  
 -3.9000e-02   -7.254e-06    1.896e-04   -9.367e-04    4.425e-02  
 -3.8000e-02   -7.066e-06    1.888e-04   -8.895e-04    4.581e-02  
 -3.7000e-02   -6.879e-06    1.880e-04   -8.406e-04    4.728e-02  
 -3.6000e-02   -6.693e-06    1.872e-04   -7.902e-04    4.888e-02  
 -3.5000e-02   -6.507e-06    1.866e-04   -7.383e-04    5.036e-02  
 -3.4000e-02   -6.321e-06    1.859e-04   -6.849e-04    5.193e-02  
 -3.3000e-02   -6.137e-06    1.854e-04   -6.300e-04    5.341e-02  
 -3.2000e-02   -5.952e-06    1.848e-04   -5.738e-04    5.487e-02  
 -3.1000e-02   -5.768e-06    1.844e-04   -5.162e-04    5.625e-02  
 -3.0000e-02   -5.584e-06    1.840e-04   -4.574e-04    5.761e-02  
 -2.9000e-02   -5.401e-06    1.836e-04   -3.975e-04    5.877e-02  
 -2.8000e-02   -5.218e-06    1.834e-04   -3.368e-04    5.986e-02  
 -2.7000e-02   -5.035e-06    1.832e-04   -2.753e-04    6.077e-02  
 -2.6000e-02   -4.852e-06    1.830e-04   -2.134e-04    6.146e-02  
 -2.5000e-02   -4.669e-06    1.829e-04   -1.513e-04    6.191e-02  
 -2.4000e-02   -4.486e-06    1.829e-04   -8.939e-05    6.211e-02  
 -2.3000e-02   -4.303e-06    1.829e-04   -2.798e-05    6.190e-02  
 -2.2000e-02   -4.120e-06    1.830e-04    3.245e-05    6.141e-02  
 -2.1000e-02   -3.937e-06    1.832e-04    9.140e-05    6.043e-02  
 -2.0000e-02   -3.753e-06    1.834e-04    1.484e-04    5.895e-02  
 -1.9000e-02   -3.569e-06    1.836e-04    2.029e-04    5.700e-02  
 -1.8000e-02   -3.385e-06    1.839e-04    2.541e-04    5.447e-02  
 -1.7000e-02   -3.200e-06    1.843e-04    3.016e-04    5.126e-02  
 -1.6000e-02   -3.015e-06    1.846e-04    3.446e-04    4.750e-02  
 -1.5000e-02   -2.830e-06    1.851e-04    3.825e-04    4.299e-02  
 -1.4000e-02   -2.644e-06    1.855e-04    4.146e-04    3.788e-02  
 -1.3000e-02   -2.457e-06    1.860e-04    4.402e-04    3.208e-02  
 -1.2000e-02   -2.270e-06    1.864e-04    4.588e-04    2.563e-02  
 -1.1000e-02   -2.083e-06    1.869e-04    4.699e-04    1.862e-02  
 -1.0000e-02   -1.895e-06    1.874e-04    4.730e-04    1.108e-02  
 -9.0000e-03   -1.707e-06    1.878e-04    4.679e-04    3.133e-03  
 -8.0000e-03   -1.518e-06    1.883e-04    4.544e-04   -5.118e-03  
 -7.0000e-03   -1.329e-06    1.887e-04    4.326e-04   -1.349e-02  
 -6.0000e-03   -1.140e-06    1.890e-04    4.027e-04   -2.184e-02  
 -5.0000e-03   -9.503e-07    1.893e-04    3.651e-04   -2.992e-02  
 -4.0000e-03   -7.604e-07    1.896e-04    3.208e-04   -3.752e-02  
 -3.0000e-03   -5.704e-07    1.898e-04    2.709e-04   -4.430e-02  
 -2.0000e-03   -3.803e-07    1.900e-04    2.168e-04   -4.996e-02  
 -1.0000e-03   -1.902e-07    1.901e-04    1.607e-04   -5.407e-02  
    0.          1.714e-13    1.902e-04    1.055e-04   -5.609e-02  
  1.0000e-03    1.902e-07    1.902e-04    5.504e-05   -5.527e-02  
  2.0000e-03    3.803e-07    1.902e-04    1.611e-05   -5.042e-02  
  3.0000e-03    5.704e-07    1.902e-04   -2.000e-10   -3.894e-02  
  4.0000e-03    7.604e-07    1.901e-04   -1.611e-05   -1.611e-02  
  5.0000e-03    9.503e-07    1.900e-04   -5.504e-05   -1.611e-02  
  6.0000e-03    1.140e-06    1.898e-04   -1.055e-04   -3.894e-02  
  7.0000e-03    1.329e-06    1.896e-04   -1.607e-04   -5.042e-02  
  8.0000e-03    1.518e-06    1.893e-04   -2.168e-04   -5.527e-02  
  9.0000e-03    1.707e-06    1.890e-04   -2.709e-04   -5.609e-02  
  1.0000e-02    1.895e-06    1.887e-04   -3.208e-04   -5.407e-02  
  1.1000e-02    2.083e-06    1.883e-04   -3.652e-04   -4.996e-02  
  1.2000e-02    2.270e-06    1.878e-04   -4.027e-04   -4.431e-02  
  1.3000e-02    2.457e-06    1.874e-04   -4.326e-04   -3.751e-02  
  1.4000e-02    2.644e-06    1.869e-04   -4.544e-04   -2.992e-02  
  1.5000e-02    2.830e-06    1.864e-04   -4.679e-04   -2.185e-02  
  1.6000e-02    3.015e-06    1.860e-04   -4.730e-04   -1.349e-02  
  1.7000e-02    3.200e-06    1.855e-04   -4.699e-04   -5.112e-03  
  1.8000e-02    3.385e-06    1.851e-04   -4.588e-04    3.123e-03  
  1.9000e-02    3.569e-06    1.846e-04   -4.402e-04    1.109e-02  
  2.0000e-02    3.753e-06    1.843e-04   -4.146e-04    1.861e-02  
  2.1000e-02    3.937e-06    1.839e-04   -3.825e-04    2.563e-02  
  2.2000e-02    4.120e-06    1.836e-04   -3.446e-04    3.208e-02  
  2.3000e-02    4.303e-06    1.834e-04   -3.016e-04    3.786e-02  
  2.4000e-02    4.486e-06    1.832e-04   -2.541e-04    4.303e-02  
  2.5000e-02    4.669e-06    1.830e-04   -2.029e-04    4.747e-02  
  2.6000e-02    4.852e-06    1.829e-04   -1.484e-04    5.128e-02  
  2.7000e-02    5.035e-06    1.829e-04   -9.141e-05    5.446e-02  
  2.8000e-02    5.218e-06    1.829e-04   -3.243e-05    5.698e-02  
  2.9000e-02    5.401e-06    1.830e-04    2.798e-05    5.898e-02  
  3.0000e-02    5.584e-06    1.832e-04    8.938e-05    6.041e-02  
  3.1000e-02    5.768e-06    1.834e-04    1.513e-04    6.140e-02  
  3.2000e-02    5.952e-06    1.836e-04    2.134e-04    6.192e-02  
  3.3000e-02    6.137e-06    1.840e-04    2.753e-04    6.209e-02  
  3.4000e-02    6.321e-06    1.844e-04    3.368e-04    6.192e-02  
  3.5000e-02    6.507e-06    1.848e-04    3.975e-04    6.146e-02  
  3.6000e-02    6.693e-06    1.854e-04    4.574e-04    6.075e-02  
  3.7000e-02    6.879e-06    1.859e-04    5.162e-04    5.988e-02  
  3.8000e-02    7.066e-06    1.866e-04    5.737e-04    5.876e-02  
  3.9000e-02    7.254e-06    1.872e-04    6.301e-04    5.757e-02  
  4.0000e-02    7.443e-06    1.880e-04    6.849e-04    5.633e-02  
  4.1000e-02    7.633e-06    1.888e-04    7.383e-04    5.480e-02  
  4.2000e-02    7.823e-06    1.896e-04    7.902e-04    5.343e-02  
  4.3000e-02    8.015e-06    1.905e-04    8.406e-04    5.192e-02  
  4.4000e-02    8.207e-06    1.914e-04    8.895e-04    5.040e-02  
  4.5000e-02    8.401e-06    1.924e-04    9.368e-04    4.884e-02  
  4.6000e-02    8.595e-06    1.934e-04    9.825e-04    4.731e-02  
  4.7000e-02    8.791e-06    1.945e-04    1.027e-03    4.577e-02  
  4.8000e-02    8.988e-06    1.956e-04    1.070e-03    4.427e-02  
  4.9000e-02    9.186e-06    1.968e-04    1.111e-03    4.275e-02  
  5.0000e-02    9.385e-06    1.980e-04    1.151e-03    4.130e-02  
  5.1000e-02    9.585e-06    1.992e-04    1.189e-03    3.985e-02  
  5.2000e-02    9.787e-06    2.005e-04    1.226e-03    3.848e-02  
  5.3000e-02    9.990e-06    2.018e-04    1.262e-03    3.703e-02  
  5.4000e-02    1.019e-05    2.031e-04    1.296e-03    3.578e-02  
  5.5000e-02    1.040e-05    2.044e-04    1.330e-03    3.447e-02  
  5.6000e-02    1.061e-05    2.058e-04    1.362e-03    3.319e-02  
  5.7000e-02    1.082e-05    2.073e-04    1.393e-03    3.202e-02  
  5.8000e-02    1.103e-05    2.087e-04    1.422e-03    3.085e-02  
  5.9000e-02    1.124e-05    2.102e-04    1.451e-03    2.970e-02  
  6.0000e-02    1.145e-05    2.117e-04    1.478e-03    2.862e-02  
  6.1000e-02    1.167e-05    2.132e-04    1.505e-03    2.760e-02  
  6.2000e-02    1.188e-05    2.148e-04    1.531e-03    2.657e-02  
  6.3000e-02    1.210e-05    2.164e-04    1.555e-03    2.562e-02  
  6.4000e-02    1.232e-05    2.180e-04    1.579e-03    2.468e-02  
  6.5000e-02    1.254e-05    2.196e-04    1.602e-03    2.378e-02  
  6.6000e-02    1.276e-05    2.212e-04    1.624e-03    2.294e-02  
  6.7000e-02    1.299e-05    2.229e-04    1.645e-03    2.213e-02  
  6.8000e-02    1.322e-05    2.246e-04    1.666e-03    2.127e-02  
  6.9000e-02    1.344e-05    2.263e-04    1.686e-03    2.061e-02  
  7.0000e-02    1.367e-05    2.280e-04    1.705e-03    1.985e-02  
  7.1000e-02    1.390e-05    2.298e-04    1.724e-03    1.910e-02  
  7.2000e-02    1.414e-05    2.315e-04    1.741e-03    1.855e-02  
  7.3000e-02    1.437e-05    2.333e-04    1.759e-03    1.776e-02  
  7.4000e-02    1.461e-05    2.351e-04    1.775e-03    1.728e-02  
  7.5000e-02    1.485e-05    2.369e-04    1.791e-03    1.663e-02  
  7.6000e-02    1.509e-05    2.387e-04    1.807e-03    1.607e-02  
  7.7000e-02    1.533e-05    2.405e-04    1.822e-03    1.556e-02  
  7.8000e-02    1.558e-05    2.424e-04    1.836e-03    1.502e-02  
  7.9000e-02    1.582e-05    2.443e-04    1.850e-03    1.451e-02  
  8.0000e-02    1.607e-05    2.461e-04    1.864e-03    1.405e-02  
  8.1000e-02    1.632e-05    2.480e-04    1.877e-03    1.361e-02  
  8.2000e-02    1.657e-05    2.499e-04    1.890e-03    1.316e-02  
  8.3000e-02    1.683e-05    2.518e-04    1.902e-03    1.278e-02  
  8.4000e-02    1.708e-05    2.538e-04    1.914e-03    1.234e-02  
  8.5000e-02    1.734e-05    2.557e-04    1.926e-03    1.192e-02  
  8.6000e-02    1.760e-05    2.577e-04    1.937e-03    1.164e-02  
  8.7000e-02    1.786e-05    2.596e-04    1.948e-03    1.123e-02  
  8.8000e-02    1.812e-05    2.616e-04    1.959e-03    1.089e-02  
  8.9000e-02    1.839e-05    2.636e-04    1.969e-03    1.060e-02  
  9.0000e-02    1.866e-05    2.655e-04    1.979e-03    1.020e-02  
  9.1000e-02    1.893e-05    2.675e-04    1.988e-03    1.002e-02  
  9.2000e-02    1.920e-05    2.696e-04    1.998e-03    9.635e-03  
  9.3000e-02    1.947e-05    2.716e-04    2.007e-03    9.379e-03  
  9.4000e-02    1.975e-05    2.736e-04    2.016e-03    9.152e-03  
  9.5000e-02    2.002e-05    2.756e-04    2.024e-03    8.868e-03  
  9.6000e-02    2.030e-05    2.777e-04    2.033e-03    8.569e-03  
  9.7000e-02    2.059e-05    2.797e-04    2.041e-03    8.384e-03  
  9.8000e-02    2.087e-05    2.818e-04    2.049e-03    8.185e-03  
  9.9000e-02    2.116e-05    2.838e-04    2.057e-03    7.915e-03  
    0.10000     2.144e-05    2.859e-04    2.064e-03    7.617e-03  
y
x

        volt    param      
                    gx4    
   -0.10000    -7.987e-02  
 -9.9000e-02    -10.9658   
 -9.8000e-02   -395.3355   
 -9.7000e-02   -1.272e+04  
 -9.6000e-02   -2.173e+07  
 -9.5000e-02    6.555e+07  
 -9.4000e-02   -6.586e+07  
 -9.3000e-02    2.205e+07  
 -9.2000e-02      0.1847   
 -9.1000e-02    7.105e-02  
 -9.0000e-02      0.3979   
 -8.9000e-02    5.684e-02  
 -8.8000e-02      0.3411   
 -8.7000e-02      0.1279   
 -8.6000e-02      0.3126   
 -8.5000e-02      0.2274   
 -8.4000e-02      0.1990   
 -8.3000e-02      0.4121   
 -8.2000e-02      0.1279   
 -8.1000e-02      0.3553   
 -8.0000e-02      0.2842   
 -7.9000e-02      0.3695   
 -7.8000e-02      0.2416   
 -7.7000e-02      0.4121   
 -7.6000e-02      0.3126   
 -7.5000e-02      0.3695   
 -7.4000e-02      0.4263   
 -7.3000e-02      0.3126   
 -7.2000e-02      0.5542   
 -7.1000e-02      0.2984   
 -7.0000e-02      0.5258   
 -6.9000e-02      0.4405   
 -6.8000e-02      0.5826   
 -6.7000e-02      0.3837   
 -6.6000e-02      0.6111   
 -6.5000e-02      0.5969   
 -6.4000e-02      0.4690   
 -6.3000e-02      0.7674   
 -6.2000e-02      0.5258   
 -6.1000e-02      0.7105   
 -6.0000e-02      0.6750   
 -5.9000e-02      0.7319   
 -5.8000e-02      0.7603   
 -5.7000e-02      0.7887   
 -5.6000e-02      0.8242   
 -5.5000e-02      0.8527   
 -5.4000e-02      0.8882   
 -5.3000e-02      0.9592   
 -5.2000e-02      0.9237   
 -5.1000e-02      1.0232   
 -5.0000e-02      1.0516   
 -4.9000e-02      1.0800   
 -4.8000e-02      1.1298   
 -4.7000e-02      1.1369   
 -4.6000e-02      1.2719   
 -4.5000e-02      1.1866   
 -4.4000e-02      1.3216   
 -4.3000e-02      1.3003   
 -4.2000e-02      1.4353   
 -4.1000e-02      1.3003   
 -4.0000e-02      1.5348   
 -3.9000e-02      1.4140   
 -3.8000e-02      1.4992   
 -3.7000e-02      1.5632   
 -3.6000e-02      1.4708   
 -3.5000e-02      1.5987   
 -3.4000e-02      1.4779   
 -3.3000e-02      1.5774   
 -3.2000e-02      1.4779   
 -3.1000e-02      1.4566   
 -3.0000e-02      1.3856   
 -2.9000e-02      1.3571   
 -2.8000e-02      1.1546   
 -2.7000e-02      1.0907   
 -2.6000e-02      0.9095   
 -2.5000e-02      0.6928   
 -2.4000e-02      0.4512   
 -2.3000e-02      0.1990   
 -2.2000e-02     -0.2061   
 -2.1000e-02     -0.4974   
 -2.0000e-02     -0.9770   
 -1.9000e-02     -1.4779   
 -1.8000e-02     -1.9540   
 -1.7000e-02     -2.5260   
 -1.6000e-02     -3.2152   
 -1.5000e-02     -3.7517   
 -1.4000e-02     -4.5084   
 -1.3000e-02     -5.1195   
 -1.2000e-02     -5.7927   
 -1.1000e-02     -6.4517   
 -1.0000e-02     -7.0148   
 -9.0000e-03     -7.5353   
 -8.0000e-03     -7.9474   
 -7.0000e-03     -8.2512   
 -6.0000e-03     -8.3720   
 -5.0000e-03     -8.3542   
 -4.0000e-03     -8.0762   
 -3.0000e-03     -7.5966   
 -2.0000e-03     -6.7839   
 -1.0000e-03     -5.6586   
    0.           -4.1087   
  1.0000e-03     -2.0228   
  2.0000e-03      0.8211   
  3.0000e-03      4.8520   
  4.0000e-03     11.4819   
  5.0000e-03     22.8277   
  6.0000e-03    3.780e-04  
  7.0000e-03    -22.8278   
  8.0000e-03    -11.4806   
  9.0000e-03     -4.8584   
  1.0000e-02     -0.8127   
  1.1000e-02      2.0206   
  1.2000e-02      4.1065   
  1.3000e-02      5.6550   
  1.4000e-02      6.7955   
  1.5000e-02      7.5859   
  1.6000e-02      8.0762   
  1.7000e-02      8.3613   
  1.8000e-02      8.3737   
  1.9000e-02      8.2352   
  2.0000e-02      7.9652   
  2.1000e-02      7.5264   
  2.2000e-02      7.0202   
  2.3000e-02      6.4446   
  2.4000e-02      5.7785   
  2.5000e-02      5.1763   
  2.6000e-02      4.4373   
  2.7000e-02      3.8050   
  2.8000e-02      3.1832   
  2.9000e-02      2.5224   
  3.0000e-02      1.9966   
  3.1000e-02      1.4317   
  3.2000e-02      0.9912   
  3.3000e-02      0.5187   
  3.4000e-02      0.1670   
  3.5000e-02     -0.1670   
  3.6000e-02     -0.4583   
  3.7000e-02     -0.7070   
  3.8000e-02     -0.8775   
  3.9000e-02     -1.1191   
  4.0000e-02     -1.1902   
  4.1000e-02     -1.2363   
  4.2000e-02     -1.5277   
  4.3000e-02     -1.3713   
  4.4000e-02     -1.5135   
  4.5000e-02     -1.5206   
  4.6000e-02     -1.5632   
  4.7000e-02     -1.5277   
  4.8000e-02     -1.5348   
  4.9000e-02     -1.4992   
  5.0000e-02     -1.5277   
  5.1000e-02     -1.4495   
  5.2000e-02     -1.4424   
  5.3000e-02     -1.3785   
  5.4000e-02     -1.4424   
  5.5000e-02     -1.2506   
  5.6000e-02     -1.3145   
  5.7000e-02     -1.2790   
  5.8000e-02     -1.1653   
  5.9000e-02     -1.1724   
  6.0000e-02     -1.1511   
  6.1000e-02     -1.0800   
  6.2000e-02     -1.0232   
  6.3000e-02     -1.0232   
  6.4000e-02     -0.9521   
  6.5000e-02     -0.9450   
  6.6000e-02     -0.8953   
  6.7000e-02     -0.8384   
  6.8000e-02     -0.8171   
  6.9000e-02     -0.8527   
  7.0000e-02     -0.6679   
  7.1000e-02     -0.7532   
  7.2000e-02     -0.7532   
  7.3000e-02     -0.5542   
  7.4000e-02     -0.7816   
  7.5000e-02     -0.4832   
  7.6000e-02     -0.6537   
  7.7000e-02     -0.5542   
  7.8000e-02     -0.5116   
  7.9000e-02     -0.5400   
  8.0000e-02     -0.5116   
  8.1000e-02     -0.4547   
  8.2000e-02     -0.4405   
  8.3000e-02     -0.4547   
  8.4000e-02     -0.3837   
  8.5000e-02     -0.4405   
  8.6000e-02     -0.4121   
  8.7000e-02     -0.2842   
  8.8000e-02     -0.4121   
  8.9000e-02     -0.3411   
  9.0000e-02     -0.2842   
  9.1000e-02     -0.3979   
  9.2000e-02     -0.1847   
  9.3000e-02     -0.3837   
  9.4000e-02     -0.2558   
  9.5000e-02     -0.2274   
  9.6000e-02     -0.2842   
  9.7000e-02     -0.2984   
  9.8000e-02     -0.1847   
  9.9000e-02     -0.1990   
    0.10000      -0.2700   
y
-----------------------------------------------
 ******  
 *sample netlist for bsim-mg

  ******  dc transfer curves tnom=  25.000 temp=  25.000 *****

   *** source        0:vgate =   -0.6000        ***

x

        volt    param        param        param        param      
                    ids          gx           gx2          gx3    
   -0.10000    -8.289e-05   -2.144e-04   -2.859e-03   -2.064e-02  
 -9.9000e-02   -8.210e-05     -0.1043      -0.5003      -4.9232   
 -9.8000e-02   -8.131e-05    7.911e-04   -104.1175    -497.4826   
 -9.7000e-02   -8.052e-05    7.908e-04    105.1231    -1.036e+05  
 -9.6000e-02   -7.973e-05    7.905e-04   -3.230e-04    2.092e+05  
 -9.5000e-02   -7.894e-05    7.902e-04   -2.943e-04   -1.051e+05  
 -9.4000e-02   -7.815e-05    7.900e-04   -2.651e-04    2.869e-02  
 -9.3000e-02   -7.736e-05    7.898e-04   -2.352e-04    2.922e-02  
 -9.2000e-02   -7.657e-05    7.896e-04   -2.048e-04    2.986e-02  
 -9.1000e-02   -7.578e-05    7.895e-04   -1.738e-04    3.048e-02  
 -9.0000e-02   -7.499e-05    7.894e-04   -1.419e-04    3.098e-02  
 -8.9000e-02   -7.420e-05    7.893e-04   -1.098e-04    3.185e-02  
 -8.8000e-02   -7.341e-05    7.892e-04   -7.670e-05    3.216e-02  
 -8.7000e-02   -7.262e-05    7.892e-04   -4.317e-05    3.308e-02  
 -8.6000e-02   -7.183e-05    7.893e-04   -8.967e-06    3.352e-02  
 -8.5000e-02   -7.104e-05    7.893e-04    2.588e-05    3.421e-02  
 -8.4000e-02   -7.025e-05    7.894e-04    6.133e-05    3.485e-02  
 -8.3000e-02   -6.946e-05    7.895e-04    9.743e-05    3.546e-02  
 -8.2000e-02   -6.867e-05    7.897e-04    1.341e-04    3.610e-02  
 -8.1000e-02   -6.788e-05    7.899e-04    1.714e-04    3.669e-02  
 -8.0000e-02   -6.709e-05    7.902e-04    2.094e-04    3.730e-02  
 -7.9000e-02   -6.630e-05    7.905e-04    2.479e-04    3.797e-02  
 -7.8000e-02   -6.551e-05    7.908e-04    2.869e-04    3.845e-02  
 -7.7000e-02   -6.472e-05    7.912e-04    3.266e-04    3.909e-02  
 -7.6000e-02   -6.393e-05    7.916e-04    3.669e-04    3.969e-02  
 -7.5000e-02   -6.313e-05    7.920e-04    4.076e-04    4.027e-02  
 -7.4000e-02   -6.234e-05    7.925e-04    4.489e-04    4.067e-02  
 -7.3000e-02   -6.155e-05    7.930e-04    4.907e-04    4.131e-02  
 -7.2000e-02   -6.075e-05    7.936e-04    5.329e-04    4.179e-02  
 -7.1000e-02   -5.996e-05    7.942e-04    5.756e-04    4.221e-02  
 -7.0000e-02   -5.916e-05    7.949e-04    6.187e-04    4.272e-02  
 -6.9000e-02   -5.837e-05    7.956e-04    6.621e-04    4.307e-02  
 -6.8000e-02   -5.757e-05    7.963e-04    7.060e-04    4.341e-02  
 -6.7000e-02   -5.677e-05    7.971e-04    7.501e-04    4.394e-02  
 -6.6000e-02   -5.597e-05    7.980e-04    7.944e-04    4.403e-02  
 -6.5000e-02   -5.517e-05    7.989e-04    8.390e-04    4.437e-02  
 -6.4000e-02   -5.437e-05    7.998e-04    8.838e-04    4.459e-02  
 -6.3000e-02   -5.357e-05    8.008e-04    9.286e-04    4.474e-02  
 -6.2000e-02   -5.277e-05    8.018e-04    9.735e-04    4.481e-02  
 -6.1000e-02   -5.196e-05    8.028e-04    1.018e-03    4.493e-02  
 -6.0000e-02   -5.116e-05    8.040e-04    1.063e-03    4.483e-02  
 -5.9000e-02   -5.035e-05    8.051e-04    1.108e-03    4.475e-02  
 -5.8000e-02   -4.954e-05    8.063e-04    1.152e-03    4.466e-02  
 -5.7000e-02   -4.874e-05    8.075e-04    1.196e-03    4.434e-02  
 -5.6000e-02   -4.793e-05    8.088e-04    1.240e-03    4.410e-02  
 -5.5000e-02   -4.711e-05    8.102e-04    1.283e-03    4.362e-02  
 -5.4000e-02   -4.630e-05    8.115e-04    1.326e-03    4.322e-02  
 -5.3000e-02   -4.549e-05    8.129e-04    1.368e-03    4.263e-02  
 -5.2000e-02   -4.467e-05    8.144e-04    1.409e-03    4.190e-02  
 -5.1000e-02   -4.385e-05    8.159e-04    1.449e-03    4.115e-02  
 -5.0000e-02   -4.303e-05    8.174e-04    1.488e-03    4.030e-02  
 -4.9000e-02   -4.221e-05    8.190e-04    1.526e-03    3.929e-02  
 -4.8000e-02   -4.139e-05    8.206e-04    1.563e-03    3.813e-02  
 -4.7000e-02   -4.057e-05    8.222e-04    1.599e-03    3.698e-02  
 -4.6000e-02   -3.974e-05    8.239e-04    1.633e-03    3.562e-02  
 -4.5000e-02   -3.891e-05    8.255e-04    1.666e-03    3.414e-02  
 -4.4000e-02   -3.809e-05    8.273e-04    1.697e-03    3.256e-02  
 -4.3000e-02   -3.726e-05    8.290e-04    1.726e-03    3.082e-02  
 -4.2000e-02   -3.642e-05    8.308e-04    1.753e-03    2.903e-02  
 -4.1000e-02   -3.559e-05    8.326e-04    1.777e-03    2.698e-02  
 -4.0000e-02   -3.475e-05    8.344e-04    1.800e-03    2.487e-02  
 -3.9000e-02   -3.391e-05    8.363e-04    1.820e-03    2.262e-02  
 -3.8000e-02   -3.307e-05    8.381e-04    1.838e-03    2.025e-02  
 -3.7000e-02   -3.223e-05    8.400e-04    1.853e-03    1.773e-02  
 -3.6000e-02   -3.139e-05    8.419e-04    1.865e-03    1.502e-02  
 -3.5000e-02   -3.054e-05    8.437e-04    1.875e-03    1.226e-02  
 -3.4000e-02   -2.969e-05    8.456e-04    1.881e-03    9.386e-03  
 -3.3000e-02   -2.885e-05    8.475e-04    1.884e-03    6.260e-03  
 -3.2000e-02   -2.799e-05    8.494e-04    1.884e-03    3.126e-03  
 -3.1000e-02   -2.714e-05    8.513e-04    1.880e-03   -1.350e-04  
 -3.0000e-02   -2.629e-05    8.531e-04    1.873e-03   -3.567e-03  
 -2.9000e-02   -2.543e-05    8.550e-04    1.863e-03   -7.073e-03  
 -2.8000e-02   -2.457e-05    8.568e-04    1.848e-03   -1.065e-02  
 -2.7000e-02   -2.371e-05    8.586e-04    1.830e-03   -1.435e-02  
 -2.6000e-02   -2.285e-05    8.604e-04    1.808e-03   -1.814e-02  
 -2.5000e-02   -2.198e-05    8.621e-04    1.782e-03   -2.198e-02  
 -2.4000e-02   -2.112e-05    8.639e-04    1.753e-03   -2.584e-02  
 -2.3000e-02   -2.025e-05    8.655e-04    1.719e-03   -2.981e-02  
 -2.2000e-02   -1.938e-05    8.672e-04    1.681e-03   -3.379e-02  
 -2.1000e-02   -1.851e-05    8.688e-04    1.639e-03   -3.774e-02  
 -2.0000e-02   -1.764e-05    8.703e-04    1.594e-03   -4.175e-02  
 -1.9000e-02   -1.677e-05    8.718e-04    1.544e-03   -4.568e-02  
 -1.8000e-02   -1.589e-05    8.732e-04    1.491e-03   -4.963e-02  
 -1.7000e-02   -1.502e-05    8.746e-04    1.433e-03   -5.345e-02  
 -1.6000e-02   -1.414e-05    8.759e-04    1.372e-03   -5.725e-02  
 -1.5000e-02   -1.326e-05    8.772e-04    1.308e-03   -6.090e-02  
 -1.4000e-02   -1.238e-05    8.783e-04    1.240e-03   -6.442e-02  
 -1.3000e-02   -1.150e-05    8.794e-04    1.169e-03   -6.777e-02  
 -1.2000e-02   -1.062e-05    8.804e-04    1.095e-03   -7.094e-02  
 -1.1000e-02   -9.738e-06    8.814e-04    1.019e-03   -7.386e-02  
 -1.0000e-02   -8.855e-06    8.822e-04    9.400e-04   -7.652e-02  
 -9.0000e-03   -7.971e-06    8.830e-04    8.591e-04   -7.887e-02  
 -8.0000e-03   -7.087e-06    8.837e-04    7.767e-04   -8.085e-02  
 -7.0000e-03   -6.202e-06    8.843e-04    6.932e-04   -8.243e-02  
 -6.0000e-03   -5.317e-06    8.849e-04    6.091e-04   -8.353e-02  
 -5.0000e-03   -4.431e-06    8.853e-04    5.251e-04   -8.409e-02  
 -4.0000e-03   -3.545e-06    8.857e-04    4.419e-04   -8.402e-02  
 -3.0000e-03   -2.659e-06    8.859e-04    3.603e-04   -8.320e-02  
 -2.0000e-03   -1.773e-06    8.861e-04    2.816e-04   -8.152e-02  
 -1.0000e-03   -8.864e-07    8.863e-04    2.069e-04   -7.877e-02  
    0.          2.982e-13    8.864e-04    1.380e-04   -7.471e-02  
  1.0000e-03    8.864e-07    8.864e-04    7.728e-05   -6.891e-02  
  2.0000e-03    1.773e-06    8.864e-04    2.894e-05   -6.068e-02  
  3.0000e-03    2.659e-06    8.864e-04    2.926e-10   -4.834e-02  
  4.0000e-03    3.545e-06    8.863e-04   -2.894e-05   -2.894e-02  
  5.0000e-03    4.431e-06    8.861e-04   -7.728e-05   -2.894e-02  
  6.0000e-03    5.317e-06    8.859e-04   -1.380e-04   -4.833e-02  
  7.0000e-03    6.202e-06    8.857e-04   -2.069e-04   -6.068e-02  
  8.0000e-03    7.087e-06    8.853e-04   -2.816e-04   -6.891e-02  
  9.0000e-03    7.971e-06    8.849e-04   -3.603e-04   -7.471e-02  
  1.0000e-02    8.855e-06    8.843e-04   -4.419e-04   -7.877e-02  
  1.1000e-02    9.738e-06    8.837e-04   -5.251e-04   -8.152e-02  
  1.2000e-02    1.062e-05    8.830e-04   -6.091e-04   -8.320e-02  
  1.3000e-02    1.150e-05    8.822e-04   -6.932e-04   -8.402e-02  
  1.4000e-02    1.238e-05    8.814e-04   -7.767e-04   -8.409e-02  
  1.5000e-02    1.326e-05    8.804e-04   -8.591e-04   -8.353e-02  
  1.6000e-02    1.414e-05    8.794e-04   -9.400e-04   -8.243e-02  
  1.7000e-02    1.502e-05    8.783e-04   -1.019e-03   -8.085e-02  
  1.8000e-02    1.589e-05    8.772e-04   -1.095e-03   -7.887e-02  
  1.9000e-02    1.677e-05    8.759e-04   -1.169e-03   -7.653e-02  
  2.0000e-02    1.764e-05    8.746e-04   -1.240e-03   -7.384e-02  
  2.1000e-02    1.851e-05    8.732e-04   -1.308e-03   -7.095e-02  
  2.2000e-02    1.938e-05    8.718e-04   -1.372e-03   -6.777e-02  
  2.3000e-02    2.025e-05    8.703e-04   -1.433e-03   -6.443e-02  
  2.4000e-02    2.112e-05    8.688e-04   -1.491e-03   -6.089e-02  
  2.5000e-02    2.198e-05    8.672e-04   -1.544e-03   -5.724e-02  
  2.6000e-02    2.285e-05    8.655e-04   -1.594e-03   -5.347e-02  
  2.7000e-02    2.371e-05    8.639e-04   -1.639e-03   -4.961e-02  
  2.8000e-02    2.457e-05    8.621e-04   -1.681e-03   -4.570e-02  
  2.9000e-02    2.543e-05    8.604e-04   -1.719e-03   -4.174e-02  
  3.0000e-02    2.629e-05    8.586e-04   -1.753e-03   -3.775e-02  
  3.1000e-02    2.714e-05    8.568e-04   -1.782e-03   -3.378e-02  
  3.2000e-02    2.799e-05    8.550e-04   -1.808e-03   -2.980e-02  
  3.3000e-02    2.885e-05    8.531e-04   -1.830e-03   -2.587e-02  
  3.4000e-02    2.969e-05    8.513e-04   -1.848e-03   -2.197e-02  
  3.5000e-02    3.054e-05    8.494e-04   -1.863e-03   -1.811e-02  
  3.6000e-02    3.139e-05    8.475e-04   -1.873e-03   -1.438e-02  
  3.7000e-02    3.223e-05    8.456e-04   -1.880e-03   -1.064e-02  
  3.8000e-02    3.307e-05    8.437e-04   -1.884e-03   -7.081e-03  
  3.9000e-02    3.391e-05    8.419e-04   -1.884e-03   -3.553e-03  
  4.0000e-02    3.475e-05    8.400e-04   -1.881e-03   -1.421e-04  
  4.1000e-02    3.559e-05    8.381e-04   -1.875e-03    3.126e-03  
  4.2000e-02    3.642e-05    8.363e-04   -1.865e-03    6.260e-03  
  4.3000e-02    3.726e-05    8.344e-04   -1.853e-03    9.386e-03  
  4.4000e-02    3.809e-05    8.326e-04   -1.838e-03    1.224e-02  
  4.5000e-02    3.891e-05    8.308e-04   -1.820e-03    1.507e-02  
  4.6000e-02    3.974e-05    8.290e-04   -1.800e-03    1.771e-02  
  4.7000e-02    4.057e-05    8.273e-04   -1.777e-03    2.022e-02  
  4.8000e-02    4.139e-05    8.255e-04   -1.753e-03    2.264e-02  
  4.9000e-02    4.221e-05    8.239e-04   -1.726e-03    2.487e-02  
  5.0000e-02    4.303e-05    8.222e-04   -1.697e-03    2.701e-02  
  5.1000e-02    4.385e-05    8.206e-04   -1.666e-03    2.897e-02  
  5.2000e-02    4.467e-05    8.190e-04   -1.633e-03    3.085e-02  
  5.3000e-02    4.549e-05    8.174e-04   -1.599e-03    3.253e-02  
  5.4000e-02    4.630e-05    8.159e-04   -1.563e-03    3.421e-02  
  5.5000e-02    4.711e-05    8.144e-04   -1.526e-03    3.556e-02  
  5.6000e-02    4.793e-05    8.129e-04   -1.488e-03    3.700e-02  
  5.7000e-02    4.874e-05    8.115e-04   -1.449e-03    3.814e-02  
  5.8000e-02    4.954e-05    8.102e-04   -1.409e-03    3.931e-02  
  5.9000e-02    5.035e-05    8.088e-04   -1.368e-03    4.028e-02  
  6.0000e-02    5.116e-05    8.075e-04   -1.326e-03    4.115e-02  
  6.1000e-02    5.196e-05    8.063e-04   -1.283e-03    4.191e-02  
  6.2000e-02    5.277e-05    8.051e-04   -1.240e-03    4.265e-02  
  6.3000e-02    5.357e-05    8.040e-04   -1.196e-03    4.317e-02  
  6.4000e-02    5.437e-05    8.028e-04   -1.152e-03    4.367e-02  
  6.5000e-02    5.517e-05    8.018e-04   -1.108e-03    4.407e-02  
  6.6000e-02    5.597e-05    8.008e-04   -1.063e-03    4.438e-02  
  6.7000e-02    5.677e-05    7.998e-04   -1.018e-03    4.464e-02  
  6.8000e-02    5.757e-05    7.989e-04   -9.735e-04    4.473e-02  
  6.9000e-02    5.837e-05    7.980e-04   -9.286e-04    4.490e-02  
  7.0000e-02    5.916e-05    7.971e-04   -8.837e-04    4.488e-02  
  7.1000e-02    5.996e-05    7.963e-04   -8.390e-04    4.484e-02  
  7.2000e-02    6.075e-05    7.956e-04   -7.945e-04    4.472e-02  
  7.3000e-02    6.155e-05    7.949e-04   -7.501e-04    4.457e-02  
  7.4000e-02    6.234e-05    7.942e-04   -7.060e-04    4.437e-02  
  7.5000e-02    6.313e-05    7.936e-04   -6.622e-04    4.414e-02  
  7.6000e-02    6.393e-05    7.930e-04   -6.187e-04    4.378e-02  
  7.7000e-02    6.472e-05    7.925e-04   -5.756e-04    4.351e-02  
  7.8000e-02    6.551e-05    7.920e-04   -5.329e-04    4.306e-02  
  7.9000e-02    6.630e-05    7.916e-04   -4.907e-04    4.269e-02  
  8.0000e-02    6.709e-05    7.912e-04   -4.489e-04    4.222e-02  
  8.1000e-02    6.788e-05    7.908e-04   -4.076e-04    4.179e-02  
  8.2000e-02    6.867e-05    7.905e-04   -3.669e-04    4.128e-02  
  8.3000e-02    6.946e-05    7.902e-04   -3.266e-04    4.073e-02  
  8.4000e-02    7.025e-05    7.899e-04   -2.870e-04    4.029e-02  
  8.5000e-02    7.104e-05    7.897e-04   -2.478e-04    3.958e-02  
  8.6000e-02    7.183e-05    7.895e-04   -2.094e-04    3.919e-02  
  8.7000e-02    7.262e-05    7.894e-04   -1.715e-04    3.844e-02  
  8.8000e-02    7.341e-05    7.893e-04   -1.341e-04    3.793e-02  
  8.9000e-02    7.420e-05    7.893e-04   -9.737e-05    3.732e-02  
  9.0000e-02    7.499e-05    7.892e-04   -6.139e-05    3.676e-02  
  9.1000e-02    7.578e-05    7.892e-04   -2.586e-05    3.598e-02  
  9.2000e-02    7.657e-05    7.893e-04    8.995e-06    3.553e-02  
  9.3000e-02    7.736e-05    7.894e-04    4.316e-05    3.486e-02  
  9.4000e-02    7.815e-05    7.895e-04    7.671e-05    3.416e-02  
  9.5000e-02    7.894e-05    7.896e-04    1.098e-04    3.355e-02  
  9.6000e-02    7.973e-05    7.898e-04    1.420e-04    3.304e-02  
  9.7000e-02    8.052e-05    7.900e-04    1.738e-04    3.220e-02  
  9.8000e-02    8.131e-05    7.902e-04    2.047e-04    3.185e-02  
  9.9000e-02    8.210e-05    7.905e-04    2.353e-04    3.092e-02  
    0.10000     8.289e-05    7.908e-04    2.651e-04    3.058e-02  
y
x

        volt    param      
                    gx4    
   -0.10000    -7.617e-02  
 -9.9000e-02    -28.2584   
 -9.8000e-02   -4.902e+03  
 -9.7000e-02   -4.925e+05  
 -9.6000e-02   -1.031e+08  
 -9.5000e-02    3.128e+08  
 -9.4000e-02   -3.143e+08  
 -9.3000e-02    1.051e+08  
 -9.2000e-02      0.5258   
 -9.1000e-02      0.6395   
 -9.0000e-02      0.6253   
 -8.9000e-02      0.4974   
 -8.8000e-02      0.8669   
 -8.7000e-02      0.3126   
 -8.6000e-02      0.9237   
 -8.5000e-02      0.4405   
 -8.4000e-02      0.6821   
 -8.3000e-02      0.6395   
 -8.2000e-02      0.6111   
 -8.1000e-02      0.6395   
 -8.0000e-02      0.5969   
 -7.9000e-02      0.6111   
 -7.8000e-02      0.6679   
 -7.7000e-02      0.4832   
 -7.6000e-02      0.6395   
 -7.5000e-02      0.5969   
 -7.4000e-02      0.5826   
 -7.3000e-02      0.3979   
 -7.2000e-02      0.6395   
 -7.1000e-02      0.4832   
 -7.0000e-02      0.4121   
 -6.9000e-02      0.5116   
 -6.8000e-02      0.3553   
 -6.7000e-02      0.3411   
 -6.6000e-02      0.5258   
 -6.5000e-02    8.527e-02  
 -6.4000e-02      0.3411   
 -6.3000e-02      0.2274   
 -6.2000e-02      0.1421   
 -6.1000e-02    7.105e-02  
 -6.0000e-02      0.1279   
 -5.9000e-02     -0.1066   
 -5.8000e-02   -7.816e-02  
 -5.7000e-02   -8.527e-02  
 -5.6000e-02     -0.3197   
 -5.5000e-02     -0.2416   
 -5.4000e-02     -0.4832   
 -5.3000e-02     -0.3979   
 -5.2000e-02     -0.5898   
 -5.1000e-02     -0.7319   
 -5.0000e-02     -0.7532   
 -4.9000e-02     -0.8455   
 -4.8000e-02     -1.0090   
 -4.7000e-02     -1.1582   
 -4.6000e-02     -1.1511   
 -4.5000e-02     -1.3642   
 -4.4000e-02     -1.4779   
 -4.3000e-02     -1.5845   
 -4.2000e-02     -1.7408   
 -4.1000e-02     -1.7906   
 -4.0000e-02     -2.0464   
 -3.9000e-02     -2.1103   
 -3.8000e-02     -2.2453   
 -3.7000e-02     -2.3732   
 -3.6000e-02     -2.5224   
 -3.5000e-02     -2.7072   
 -3.4000e-02     -2.7569   
 -3.3000e-02     -2.8777   
 -3.2000e-02     -3.1264   
 -3.1000e-02     -3.1335   
 -3.0000e-02     -3.2614   
 -2.9000e-02     -3.4319   
 -2.8000e-02     -3.5065   
 -2.7000e-02     -3.5811   
 -2.6000e-02     -3.6913   
 -2.5000e-02     -3.7907   
 -2.4000e-02     -3.8476   
 -2.3000e-02     -3.8511   
 -2.2000e-02     -3.9755   
 -2.1000e-02     -3.9755   
 -2.0000e-02     -3.9542   
 -1.9000e-02     -4.0075   
 -1.8000e-02     -3.9364   
 -1.7000e-02     -3.9435   
 -1.6000e-02     -3.8227   
 -1.5000e-02     -3.7979   
 -1.4000e-02     -3.6522   
 -1.3000e-02     -3.5172   
 -1.2000e-02     -3.3538   
 -1.1000e-02     -3.1726   
 -1.0000e-02     -2.9150   
 -9.0000e-03     -2.6592   
 -8.0000e-03     -2.3519   
 -7.0000e-03     -1.9806   
 -6.0000e-03     -1.5792   
 -5.0000e-03     -1.1013   
 -4.0000e-03     -0.5569   
 -3.0000e-03    6.839e-02  
 -2.0000e-03      0.8225   
 -1.0000e-03      1.6769   
    0.            2.7502   
  1.0000e-03      4.0647   
  2.0000e-03      5.7911   
  3.0000e-03      8.2360   
  4.0000e-03     12.3397   
  5.0000e-03     19.3993   
  6.0000e-03   -2.321e-03  
  7.0000e-03    -19.3927   
  8.0000e-03    -12.3481   
  9.0000e-03     -8.2299   
  1.0000e-02     -5.7945   
  1.1000e-02     -4.0625   
  1.2000e-02     -2.7485   
  1.3000e-02     -1.6831   
  1.4000e-02     -0.8189   
  1.5000e-02   -6.928e-02  
  1.6000e-02      0.5613   
  1.7000e-02      1.0978   
  1.8000e-02      1.5774   
  1.9000e-02      1.9842   
  2.0000e-02      2.3395   
  2.1000e-02      2.6841   
  2.2000e-02      2.8955   
  2.3000e-02      3.1815   
  2.4000e-02      3.3360   
  2.5000e-02      3.5456   
  2.6000e-02      3.6451   
  2.7000e-02      3.7694   
  2.8000e-02      3.8618   
  2.9000e-02      3.9151   
  3.0000e-02      3.9506   
  3.1000e-02      3.9968   
  3.2000e-02      3.9719   
  3.3000e-02      3.9790   
  3.4000e-02      3.9222   
  3.5000e-02      3.9080   
  3.6000e-02      3.8582   
  3.7000e-02      3.7232   
  3.8000e-02      3.7446   
  3.9000e-02      3.5598   
  4.0000e-02      3.5278   
  4.1000e-02      3.4106   
  4.2000e-02      3.2685   
  4.3000e-02      3.1335   
  4.4000e-02      3.1264   
  4.5000e-02      2.8564   
  4.6000e-02      2.8280   
  4.7000e-02      2.6361   
  4.8000e-02      2.5153   
  4.9000e-02      2.4230   
  5.0000e-02      2.2240   
  5.1000e-02      2.1387   
  5.2000e-02      1.9611   
  5.3000e-02      1.8829   
  5.4000e-02      1.6769   
  5.5000e-02      1.6769   
  5.6000e-02      1.3500   
  5.7000e-02      1.4424   
  5.8000e-02      1.1440   
  5.9000e-02      1.1653   
  6.0000e-02      0.9734   
  6.1000e-02      0.8669   
  6.2000e-02      0.7674   
  6.3000e-02      0.7319   
  6.4000e-02      0.5187   
  6.5000e-02      0.5045   
  6.6000e-02      0.4050   
  6.7000e-02      0.3055   
  6.8000e-02      0.2558   
  6.9000e-02    9.237e-02  
  7.0000e-02      0.1705   
  7.1000e-02   -2.132e-02  
  7.2000e-02   -4.263e-02  
  7.3000e-02     -0.1137   
  7.4000e-02     -0.1563   
  7.5000e-02     -0.1990   
  7.6000e-02     -0.2274   
  7.7000e-02     -0.3553   
  7.8000e-02     -0.2700   
  7.9000e-02     -0.4547   
  8.0000e-02     -0.3695   
  8.1000e-02     -0.4690   
  8.2000e-02     -0.4263   
  8.3000e-02     -0.5116   
  8.4000e-02     -0.5542   
  8.5000e-02     -0.4405   
  8.6000e-02     -0.7105   
  8.7000e-02     -0.3837   
  8.8000e-02     -0.7532   
[...]
 -8.2000e-02   -1.631e-04    1.839e-03    4.423e-03   -2.743e-03  
 -8.1000e-02   -1.612e-04    1.844e-03    4.418e-03   -3.837e-03  
 -8.0000e-02   -1.594e-04    1.848e-03    4.412e-03   -4.903e-03  
 -7.9000e-02   -1.575e-04    1.852e-03    4.405e-03   -5.969e-03  
 -7.8000e-02   -1.556e-04    1.857e-03    4.397e-03   -7.063e-03  
 -7.7000e-02   -1.538e-04    1.861e-03    4.387e-03   -8.228e-03  
 -7.6000e-02   -1.519e-04    1.866e-03    4.377e-03   -9.294e-03  
 -7.5000e-02   -1.500e-04    1.870e-03    4.365e-03   -1.056e-02  
 -7.4000e-02   -1.481e-04    1.874e-03    4.352e-03   -1.167e-02  
 -7.3000e-02   -1.463e-04    1.879e-03    4.338e-03   -1.286e-02  
 -7.2000e-02   -1.444e-04    1.883e-03    4.323e-03   -1.418e-02  
 -7.1000e-02   -1.425e-04    1.887e-03    4.306e-03   -1.521e-02  
 -7.0000e-02   -1.406e-04    1.891e-03    4.288e-03   -1.674e-02  
 -6.9000e-02   -1.387e-04    1.896e-03    4.269e-03   -1.775e-02  
 -6.8000e-02   -1.368e-04    1.900e-03    4.249e-03   -1.920e-02  
 -6.7000e-02   -1.349e-04    1.904e-03    4.227e-03   -2.042e-02  
 -6.6000e-02   -1.330e-04    1.908e-03    4.204e-03   -2.171e-02  
 -6.5000e-02   -1.310e-04    1.912e-03    4.179e-03   -2.311e-02  
 -6.4000e-02   -1.291e-04    1.917e-03    4.154e-03   -2.444e-02  
 -6.3000e-02   -1.272e-04    1.921e-03    4.127e-03   -2.575e-02  
 -6.2000e-02   -1.253e-04    1.925e-03    4.098e-03   -2.710e-02  
 -6.1000e-02   -1.233e-04    1.929e-03    4.068e-03   -2.857e-02  
 -6.0000e-02   -1.214e-04    1.933e-03    4.037e-03   -2.981e-02  
 -5.9000e-02   -1.195e-04    1.937e-03    4.004e-03   -3.132e-02  
 -5.8000e-02   -1.175e-04    1.941e-03    3.970e-03   -3.270e-02  
 -5.7000e-02   -1.156e-04    1.945e-03    3.935e-03   -3.402e-02  
 -5.6000e-02   -1.136e-04    1.948e-03    3.898e-03   -3.557e-02  
 -5.5000e-02   -1.117e-04    1.952e-03    3.859e-03   -3.689e-02  
 -5.4000e-02   -1.097e-04    1.956e-03    3.820e-03   -3.836e-02  
 -5.3000e-02   -1.077e-04    1.960e-03    3.778e-03   -3.973e-02  
 -5.2000e-02   -1.058e-04    1.963e-03    3.736e-03   -4.120e-02  
 -5.1000e-02   -1.038e-04    1.967e-03    3.692e-03   -4.264e-02  
 -5.0000e-02   -1.018e-04    1.971e-03    3.646e-03   -4.403e-02  
 -4.9000e-02   -9.985e-05    1.974e-03    3.599e-03   -4.547e-02  
 -4.8000e-02   -9.787e-05    1.978e-03    3.551e-03   -4.686e-02  
 -4.7000e-02   -9.588e-05    1.981e-03    3.501e-03   -4.834e-02  
 -4.6000e-02   -9.389e-05    1.985e-03    3.450e-03   -4.971e-02  
 -4.5000e-02   -9.190e-05    1.988e-03    3.398e-03   -5.112e-02  
 -4.4000e-02   -8.991e-05    1.991e-03    3.344e-03   -5.249e-02  
 -4.3000e-02   -8.791e-05    1.994e-03    3.289e-03   -5.390e-02  
 -4.2000e-02   -8.591e-05    1.998e-03    3.232e-03   -5.525e-02  
 -4.1000e-02   -8.391e-05    2.001e-03    3.174e-03   -5.662e-02  
 -4.0000e-02   -8.190e-05    2.004e-03    3.115e-03   -5.796e-02  
 -3.9000e-02   -7.989e-05    2.007e-03    3.054e-03   -5.927e-02  
 -3.8000e-02   -7.788e-05    2.010e-03    2.992e-03   -6.057e-02  
 -3.7000e-02   -7.586e-05    2.013e-03    2.929e-03   -6.187e-02  
 -3.6000e-02   -7.384e-05    2.015e-03    2.865e-03   -6.313e-02  
 -3.5000e-02   -7.182e-05    2.018e-03    2.799e-03   -6.433e-02  
 -3.4000e-02   -6.980e-05    2.021e-03    2.733e-03   -6.559e-02  
 -3.3000e-02   -6.777e-05    2.023e-03    2.665e-03   -6.673e-02  
 -3.2000e-02   -6.575e-05    2.026e-03    2.596e-03   -6.791e-02  
 -3.1000e-02   -6.371e-05    2.028e-03    2.526e-03   -6.902e-02  
 -3.0000e-02   -6.168e-05    2.031e-03    2.454e-03   -7.009e-02  
 -2.9000e-02   -5.965e-05    2.033e-03    2.382e-03   -7.115e-02  
 -2.8000e-02   -5.761e-05    2.035e-03    2.309e-03   -7.214e-02  
 -2.7000e-02   -5.557e-05    2.037e-03    2.235e-03   -7.310e-02  
 -2.6000e-02   -5.353e-05    2.040e-03    2.160e-03   -7.401e-02  
 -2.5000e-02   -5.148e-05    2.042e-03    2.085e-03   -7.492e-02  
 -2.4000e-02   -4.944e-05    2.043e-03    2.008e-03   -7.571e-02  
 -2.3000e-02   -4.739e-05    2.045e-03    1.931e-03   -7.648e-02  
 -2.2000e-02   -4.534e-05    2.047e-03    1.853e-03   -7.719e-02  
 -2.1000e-02   -4.329e-05    2.049e-03    1.775e-03   -7.786e-02  
 -2.0000e-02   -4.124e-05    2.050e-03    1.696e-03   -7.843e-02  
 -1.9000e-02   -3.919e-05    2.052e-03    1.616e-03   -7.896e-02  
 -1.8000e-02   -3.713e-05    2.053e-03    1.536e-03   -7.943e-02  
 -1.7000e-02   -3.508e-05    2.055e-03    1.456e-03   -7.977e-02  
 -1.6000e-02   -3.302e-05    2.056e-03    1.376e-03   -8.011e-02  
 -1.5000e-02   -3.096e-05    2.057e-03    1.296e-03   -8.030e-02  
 -1.4000e-02   -2.890e-05    2.058e-03    1.215e-03   -8.044e-02  
 -1.3000e-02   -2.684e-05    2.060e-03    1.135e-03   -8.047e-02  
 -1.2000e-02   -2.478e-05    2.060e-03    1.054e-03   -8.040e-02  
 -1.1000e-02   -2.272e-05    2.061e-03    9.745e-04   -8.024e-02  
 -1.0000e-02   -2.065e-05    2.062e-03    8.950e-04   -7.993e-02  
 -9.0000e-03   -1.859e-05    2.063e-03    8.160e-04   -7.952e-02  
 -8.0000e-03   -1.653e-05    2.064e-03    7.377e-04   -7.897e-02  
 -7.0000e-03   -1.446e-05    2.064e-03    6.603e-04   -7.826e-02  
 -6.0000e-03   -1.240e-05    2.065e-03    5.840e-04   -7.739e-02  
 -5.0000e-03   -1.033e-05    2.065e-03    5.089e-04   -7.633e-02  
 -4.0000e-03   -8.265e-06    2.065e-03    4.354e-04   -7.509e-02  
 -3.0000e-03   -6.199e-06    2.066e-03    3.636e-04   -7.357e-02  
 -2.0000e-03   -4.133e-06    2.066e-03    2.939e-04   -7.180e-02  
 -1.0000e-03   -2.066e-06    2.066e-03    2.267e-04   -6.969e-02  
    0.          5.349e-14    2.066e-03    1.626e-04   -6.716e-02  
  1.0000e-03    2.066e-06    2.066e-03    1.024e-04   -6.409e-02  
  2.0000e-03    4.133e-06    2.066e-03    4.741e-05   -6.021e-02  
  3.0000e-03    6.199e-06    2.066e-03    1.489e-10   -5.499e-02  
  4.0000e-03    8.265e-06    2.066e-03   -4.741e-05   -4.741e-02  
  5.0000e-03    1.033e-05    2.066e-03   -1.024e-04   -4.741e-02  
  6.0000e-03    1.240e-05    2.066e-03   -1.626e-04   -5.499e-02  
  7.0000e-03    1.446e-05    2.065e-03   -2.267e-04   -6.022e-02  
  8.0000e-03    1.653e-05    2.065e-03   -2.939e-04   -6.408e-02  
  9.0000e-03    1.859e-05    2.065e-03   -3.635e-04   -6.716e-02  
  1.0000e-02    2.065e-05    2.064e-03   -4.354e-04   -6.969e-02  
  1.1000e-02    2.272e-05    2.064e-03   -5.089e-04   -7.180e-02  
  1.2000e-02    2.478e-05    2.063e-03   -5.840e-04   -7.358e-02  
  1.3000e-02    2.684e-05    2.062e-03   -6.604e-04   -7.507e-02  
  1.4000e-02    2.890e-05    2.061e-03   -7.377e-04   -7.635e-02  
  1.5000e-02    3.096e-05    2.060e-03   -8.160e-04   -7.739e-02  
  1.6000e-02    3.302e-05    2.060e-03   -8.950e-04   -7.826e-02  
  1.7000e-02    3.508e-05    2.058e-03   -9.745e-04   -7.897e-02  
  1.8000e-02    3.713e-05    2.057e-03   -1.054e-03   -7.951e-02  
  1.9000e-02    3.919e-05    2.056e-03   -1.135e-03   -7.994e-02  
  2.0000e-02    4.124e-05    2.055e-03   -1.215e-03   -8.023e-02  
  2.1000e-02    4.329e-05    2.053e-03   -1.296e-03   -8.039e-02  
  2.2000e-02    4.534e-05    2.052e-03   -1.376e-03   -8.049e-02  
  2.3000e-02    4.739e-05    2.050e-03   -1.456e-03   -8.042e-02  
  2.4000e-02    4.944e-05    2.049e-03   -1.536e-03   -8.031e-02  
  2.5000e-02    5.148e-05    2.047e-03   -1.616e-03   -8.009e-02  
  2.6000e-02    5.353e-05    2.045e-03   -1.696e-03   -7.980e-02  
  2.7000e-02    5.557e-05    2.043e-03   -1.775e-03   -7.940e-02  
  2.8000e-02    5.761e-05    2.042e-03   -1.853e-03   -7.897e-02  
  2.9000e-02    5.965e-05    2.040e-03   -1.931e-03   -7.843e-02  
  3.0000e-02    6.168e-05    2.037e-03   -2.008e-03   -7.785e-02  
  3.1000e-02    6.371e-05    2.035e-03   -2.085e-03   -7.719e-02  
  3.2000e-02    6.575e-05    2.033e-03   -2.160e-03   -7.648e-02  
  3.3000e-02    6.777e-05    2.031e-03   -2.235e-03   -7.573e-02  
  3.4000e-02    6.980e-05    2.028e-03   -2.309e-03   -7.489e-02  
  3.5000e-02    7.182e-05    2.026e-03   -2.382e-03   -7.404e-02  
  3.6000e-02    7.384e-05    2.023e-03   -2.454e-03   -7.310e-02  
  3.7000e-02    7.586e-05    2.021e-03   -2.526e-03   -7.216e-02  
  3.8000e-02    7.788e-05    2.018e-03   -2.596e-03   -7.113e-02  
  3.9000e-02    7.989e-05    2.015e-03   -2.665e-03   -7.010e-02  
  4.0000e-02    8.190e-05    2.013e-03   -2.733e-03   -6.904e-02  
  4.1000e-02    8.391e-05    2.010e-03   -2.799e-03   -6.787e-02  
  4.2000e-02    8.591e-05    2.007e-03   -2.865e-03   -6.676e-02  
  4.3000e-02    8.791e-05    2.004e-03   -2.929e-03   -6.555e-02  
  4.4000e-02    8.991e-05    2.001e-03   -2.992e-03   -6.438e-02  
  4.5000e-02    9.190e-05    1.998e-03   -3.054e-03   -6.312e-02  
  4.6000e-02    9.389e-05    1.994e-03   -3.115e-03   -6.187e-02  
  4.7000e-02    9.588e-05    1.991e-03   -3.174e-03   -6.057e-02  
  4.8000e-02    9.787e-05    1.988e-03   -3.232e-03   -5.928e-02  
  4.9000e-02    9.985e-05    1.985e-03   -3.289e-03   -5.794e-02  
  5.0000e-02    1.018e-04    1.981e-03   -3.344e-03   -5.664e-02  
  5.1000e-02    1.038e-04    1.978e-03   -3.398e-03   -5.523e-02  
  5.2000e-02    1.058e-04    1.974e-03   -3.450e-03   -5.389e-02  
  5.3000e-02    1.077e-04    1.971e-03   -3.501e-03   -5.255e-02  
  5.4000e-02    1.097e-04    1.967e-03   -3.551e-03   -5.107e-02  
  5.5000e-02    1.117e-04    1.963e-03   -3.599e-03   -4.974e-02  
  5.6000e-02    1.136e-04    1.960e-03   -3.646e-03   -4.830e-02  
  5.7000e-02    1.156e-04    1.956e-03   -3.692e-03   -4.687e-02  
  5.8000e-02    1.175e-04    1.952e-03   -3.736e-03   -4.549e-02  
  5.9000e-02    1.195e-04    1.948e-03   -3.778e-03   -4.405e-02  
  6.0000e-02    1.214e-04    1.945e-03   -3.820e-03   -4.259e-02  
  6.1000e-02    1.233e-04    1.941e-03   -3.859e-03   -4.120e-02  
  6.2000e-02    1.253e-04    1.937e-03   -3.898e-03   -3.980e-02  
  6.3000e-02    1.272e-04    1.933e-03   -3.935e-03   -3.829e-02  
  6.4000e-02    1.291e-04    1.929e-03   -3.970e-03   -3.694e-02  
  6.5000e-02    1.310e-04    1.925e-03   -4.004e-03   -3.551e-02  
  6.6000e-02    1.330e-04    1.921e-03   -4.037e-03   -3.408e-02  
  6.7000e-02    1.349e-04    1.917e-03   -4.068e-03   -3.269e-02  
  6.8000e-02    1.368e-04    1.912e-03   -4.098e-03   -3.126e-02  
  6.9000e-02    1.387e-04    1.908e-03   -4.127e-03   -2.991e-02  
  7.0000e-02    1.406e-04    1.904e-03   -4.154e-03   -2.847e-02  
  7.1000e-02    1.425e-04    1.900e-03   -4.179e-03   -2.716e-02  
  7.2000e-02    1.444e-04    1.896e-03   -4.204e-03   -2.574e-02  
  7.3000e-02    1.463e-04    1.891e-03   -4.227e-03   -2.446e-02  
  7.4000e-02    1.481e-04    1.887e-03   -4.249e-03   -2.306e-02  
  7.5000e-02    1.500e-04    1.883e-03   -4.269e-03   -2.176e-02  
  7.6000e-02    1.519e-04    1.879e-03   -4.288e-03   -2.042e-02  
  7.7000e-02    1.538e-04    1.874e-03   -4.306e-03   -1.914e-02  
  7.8000e-02    1.556e-04    1.870e-03   -4.323e-03   -1.785e-02  
  7.9000e-02    1.575e-04    1.866e-03   -4.338e-03   -1.661e-02  
  8.0000e-02    1.594e-04    1.861e-03   -4.352e-03   -1.536e-02  
  8.1000e-02    1.612e-04    1.857e-03   -4.365e-03   -1.404e-02  
  8.2000e-02    1.631e-04    1.852e-03   -4.377e-03   -1.293e-02  
  8.3000e-02    1.649e-04    1.848e-03   -4.387e-03   -1.167e-02  
  8.4000e-02    1.667e-04    1.844e-03   -4.397e-03   -1.052e-02  
  8.5000e-02    1.686e-04    1.839e-03   -4.405e-03   -9.365e-03  
  8.6000e-02    1.704e-04    1.835e-03   -4.412e-03   -8.114e-03  
  8.7000e-02    1.722e-04    1.830e-03   -4.418e-03   -7.191e-03  
  8.8000e-02    1.740e-04    1.826e-03   -4.423e-03   -5.883e-03  
  8.9000e-02    1.759e-04    1.822e-03   -4.427e-03   -4.974e-03  
  9.0000e-02    1.777e-04    1.817e-03   -4.429e-03   -3.737e-03  
  9.1000e-02    1.795e-04    1.813e-03   -4.431e-03   -2.842e-03  
  9.2000e-02    1.813e-04    1.808e-03   -4.432e-03   -1.720e-03  
  9.3000e-02    1.831e-04    1.804e-03   -4.432e-03   -7.674e-04  
  9.4000e-02    1.849e-04    1.799e-03   -4.431e-03    2.416e-04  
  9.5000e-02    1.867e-04    1.795e-03   -4.428e-03    1.137e-03  
  9.6000e-02    1.885e-04    1.791e-03   -4.425e-03    2.174e-03  
  9.7000e-02    1.902e-04    1.786e-03   -4.421e-03    2.942e-03  
  9.8000e-02    1.920e-04    1.782e-03   -4.417e-03    4.050e-03  
  9.9000e-02    1.938e-04    1.777e-03   -4.411e-03    4.746e-03  
    0.10000     1.956e-04    1.773e-03   -4.404e-03    5.656e-03  
y
x

        volt    param      
                    gx4    
   -0.10000      -0.2852   
 -9.9000e-02     -4.6460   
 -9.8000e-02   -1.090e+04  
 -9.7000e-02   -2.756e+06  
 -9.6000e-02   -3.339e+08  
 -9.5000e-02    1.019e+09  
 -9.4000e-02   -1.025e+09  
 -9.3000e-02    3.427e+08  
 -9.2000e-02     -0.9521   
 -9.1000e-02     -0.6395   
 -9.0000e-02     -0.8669   
 -8.9000e-02     -0.9521   
 -8.8000e-02     -0.7674   
 -8.7000e-02     -0.8953   
 -8.6000e-02     -0.9805   
 -8.5000e-02     -0.9237   
 -8.4000e-02     -0.8811   
 -8.3000e-02     -1.1084   
 -8.2000e-02     -0.9237   
 -8.1000e-02     -0.9948   
 -8.0000e-02     -1.0942   
 -7.9000e-02     -1.0658   
 -7.8000e-02     -1.0658   
 -7.7000e-02     -1.0942   
 -7.6000e-02     -1.1653   
 -7.5000e-02     -1.0658   
 -7.4000e-02     -1.2648   
 -7.3000e-02     -1.1084   
 -7.2000e-02     -1.1937   
 -7.1000e-02     -1.3216   
 -7.0000e-02     -1.0232   
 -6.9000e-02     -1.5348   
 -6.8000e-02     -1.0090   
 -6.7000e-02     -1.4495   
 -6.6000e-02     -1.2221   
 -6.5000e-02     -1.2932   
 -6.4000e-02     -1.3927   
 -6.3000e-02     -1.3358   
 -6.2000e-02     -1.3074   
 -6.1000e-02     -1.3500   
 -6.0000e-02     -1.4708   
 -5.9000e-02     -1.2434   
 -5.8000e-02     -1.5064   
 -5.7000e-02     -1.3785   
 -5.6000e-02     -1.3216   
 -5.5000e-02     -1.5490   
 -5.4000e-02     -1.3216   
 -5.3000e-02     -1.4708   
 -5.2000e-02     -1.3713   
 -5.1000e-02     -1.4708   
 -5.0000e-02     -1.4353   
 -4.9000e-02     -1.3927   
 -4.8000e-02     -1.4424   
 -4.7000e-02     -1.3856   
 -4.6000e-02     -1.4779   
 -4.5000e-02     -1.3713   
 -4.4000e-02     -1.4069   
 -4.3000e-02     -1.3785   
 -4.2000e-02     -1.4069   
 -4.1000e-02     -1.3500   
 -4.0000e-02     -1.3642   
 -3.9000e-02     -1.3429   
 -3.8000e-02     -1.3145   
 -3.7000e-02     -1.3003   
 -3.6000e-02     -1.3003   
 -3.5000e-02     -1.2577   
 -3.4000e-02     -1.2008   
 -3.3000e-02     -1.2577   
 -3.2000e-02     -1.1440   
 -3.1000e-02     -1.1724   
 -3.0000e-02     -1.1084   
 -2.9000e-02     -1.0729   
 -2.8000e-02     -1.0623   
 -2.7000e-02     -0.9948   
 -2.6000e-02     -0.9592   
 -2.5000e-02     -0.9095   
 -2.4000e-02     -0.9059   
 -2.3000e-02     -0.7887   
 -2.2000e-02     -0.7745   
 -2.1000e-02     -0.7070   
 -2.0000e-02     -0.6679   
 -1.9000e-02     -0.5720   
 -1.8000e-02     -0.5294   
 -1.7000e-02     -0.4725   
 -1.6000e-02     -0.3340   
 -1.5000e-02     -0.3446   
 -1.4000e-02     -0.1918   
 -1.3000e-02     -0.1421   
 -1.2000e-02   -2.665e-02  
 -1.1000e-02    7.283e-02  
 -1.0000e-02      0.1599   
 -9.0000e-03      0.3038   
 -8.0000e-03      0.4174   
 -7.0000e-03      0.5453   
 -6.0000e-03      0.7088   
 -5.0000e-03      0.8704   
 -4.0000e-03      1.0596   
 -3.0000e-03      1.2434   
 -2.0000e-03      1.5152   
 -1.0000e-03      1.7728   
    0.            2.1099   
  1.0000e-03      2.5340   
  2.0000e-03      3.0722   
  3.0000e-03      3.8726   
  4.0000e-03      5.2209   
  5.0000e-03      7.5791   
  6.0000e-03   -1.224e-03  
  7.0000e-03     -7.5746   
  8.0000e-03     -5.2285   
  9.0000e-03     -3.8658   
  1.0000e-02     -3.0760   
  1.1000e-02     -2.5300   
  1.2000e-02     -2.1152   
  1.3000e-02     -1.7755   
  1.4000e-02     -1.4921   
  1.5000e-02     -1.2781   
  1.6000e-02     -1.0392   
  1.7000e-02     -0.8704   
  1.8000e-02     -0.7141   
  1.9000e-02     -0.5400   
  2.0000e-02     -0.4299   
  2.1000e-02     -0.2878   
  2.2000e-02     -0.1616   
  2.3000e-02   -9.948e-02  
  2.4000e-02    6.928e-02  
  2.5000e-02      0.1101   
  2.6000e-02      0.2203   
  2.7000e-02      0.2949   
  2.8000e-02      0.3944   
  2.9000e-02      0.4299   
  3.0000e-02      0.5436   
  3.1000e-02      0.5791   
  3.2000e-02      0.6573   
  3.3000e-02      0.7141   
  3.4000e-02      0.7532   
  3.5000e-02      0.8384   
  3.6000e-02      0.8527   
  3.7000e-02      0.9344   
  3.8000e-02      0.9450   
  3.9000e-02      1.0303   
  4.0000e-02      1.0232   
  4.1000e-02      1.0658   
  4.2000e-02      1.1653   
  4.3000e-02      1.1084   
  4.4000e-02      1.2150   
  4.5000e-02      1.1724   
  4.6000e-02      1.2577   
  4.7000e-02      1.2434   
  4.8000e-02      1.3003   
  4.9000e-02      1.2932   
  5.0000e-02      1.3429   
  5.1000e-02      1.2932   
  5.2000e-02      1.4140   
  5.3000e-02      1.3429   
  5.4000e-02      1.3358   
  5.5000e-02      1.4850   
  5.6000e-02      1.3287   
  5.7000e-02      1.4353   
  5.8000e-02      1.4282   
  5.9000e-02      1.3856   
  6.0000e-02      1.4353   
  6.1000e-02      1.4637   
  6.2000e-02      1.3856   
  6.3000e-02      1.4069   
  6.4000e-02      1.5064   
  6.5000e-02      1.3500   
  6.6000e-02      1.4282   
  6.7000e-02      1.4353   
  6.8000e-02      1.3856   
  6.9000e-02      1.4282   
  7.0000e-02      1.3500   
  7.1000e-02      1.4424   
  7.2000e-02      1.3145   
  7.3000e-02      1.4211   
  7.4000e-02      1.2790   
  7.5000e-02      1.3927   
  7.6000e-02      1.3074   
  7.7000e-02      1.3358   
  7.8000e-02      1.2790   
  7.9000e-02      1.2932   
  8.0000e-02      1.2363   
  8.1000e-02      1.2506   
  8.2000e-02      1.3216   
  8.3000e-02      1.1084   
  8.4000e-02      1.2648   
  8.5000e-02      1.1511   
  8.6000e-02      1.1511   
  8.7000e-02      1.2506   
  8.8000e-02      0.9237   
  8.9000e-02      1.3074   
  9.0000e-02      0.9095   
  9.1000e-02      1.2363   
  9.2000e-02      0.8953   
  9.3000e-02      1.1227   
  9.4000e-02      0.9521   
  9.5000e-02      1.0090   
  9.6000e-02      0.8953   
  9.7000e-02      1.0374   
  9.8000e-02      0.7674   
  9.9000e-02      1.1084   
    0.10000       0.6963   
y
-----------------------------------------------

          ***** job concluded
1****** HSPICE -- G-2012.06 32-BIT (May 27 2012) RHEL32 ******                  
 ******  
 *sample netlist for bsim-mg

  ******  job statistics summary tnom=  25.000 temp=  25.000 *****
  
  
 ******  Machine Information  ******
 CPU:
 model name	: Intel(R) Xeon(R) CPU E5-2643 0 @ 3.30GHz
 cpu MHz	: 3299.839
  
 OS:
 Linux version 2.6.32-358.18.1.el6.x86_64 (mockbuild@x86-003.build.bos.redhat.com) (gcc version 4.4.7 20120313 (Red Hat 4.4.7-3) (GCC) ) #1 SMP Fri Aug 2 17:04:38 EDT 2013


  ******  HSPICE Threads Information  ******

  Command Line Threads Count :     1
  Available CPU Count        :     8
  Actual Threads Count       :     1


  ******  Circuit Statistics  ******
  # nodes       =      10 # elements   =       5
  # resistors   =       0 # capacitors =       0 # inductors   =       0
  # mutual_inds =       0 # vccs       =       0 # vcvs        =       1
  # cccs        =       0 # ccvs       =       0 # volt_srcs   =       3
  # curr_srcs   =       0 # diodes     =       0 # bjts        =       0
  # jfets       =       0 # mosfets    =       0 # U elements  =       0
  # T elements  =       0 # W elements =       0 # B elements  =       0
  # S elements  =       0 # P elements =       0 # va device   =       1
  # vector_srcs =       0 # N elements =       0


  ******  Runtime Statistics (seconds)  ******

  analysis           time    # points   tot. iter  conv.iter
  op point           0.00           1           0
  dc sweep           0.15        1206        2424
  readin             4.75
  errchk             0.08
  setup              0.00
  output             0.02


           peak memory used        123.08 megabytes
           total cpu time            5.00 seconds
           total elapsed time       12.49 seconds
           job started at     21:16:07 08/22/2014
           job ended   at     21:16:20 08/22/2014


 lic: Release hspice token(s) 
 lic: total license checkout elapse time:        0.21(s)
