 ****** HSPICE -- G-2012.06 32-BIT (May 27 2012) RHEL32 ******                  
  Copyright (C) 2012 Synopsys, Inc. All Rights Reserved.                        
  Unpublished-rights reserved under US copyright laws.
  This program is protected by law and is subject to the
  terms and conditions of the license agreement from Synopsys.
  Use of this program is your acceptance to be bound by the
  license agreement. HSPICE is the trademark of Synopsys, Inc.
  Input File: ringosc_17stg.sp                                                  
  Command line options: -hdlpath ../code -i ringosc_17stg.sp -o ringosc_17stg
 lic:  
 lic: FLEXlm: v10.8 
 lic: USER:   sourabh              HOSTNAME: bwrcr720-1.eecs.berkeley.edu 
 lic: HOSTID:                      PID:      30557 
 lic: Using FLEXlm license file: 
 lic: 1701@sunv40z-1.eecs.berkeley.edu 
 lic: Checkout 1 hspice 
 lic: License/Maintenance for hspice will expire on 18-nov-2014/2013.03 
 lic: 1(in_use)/50(total) FLOATING license(s) on SERVER sunv40z-1.eecs.berkeley.
 lic:   
 Init: read install configuration file: /tools/synopsys/hspice/G-2012.06/hspice/meta.cfg
 **info** *pvaI* Module (bsimcmg): 4 unexpanded port, 0 init, 2326 behav, 66 contrib, 63/3580 expr(s)

 **info** *pvaI* Resizing DB size for v count = 1

 **info** *pvaI* Resizing DB size for v count = 2

 **info** *pvaI*        Has DIS (SB), 5 afCount

 **info** *pvaI*        0 const-G and 0 const-C, Has switch branch.

 **info** *pvaI* Module (bsimcmg): generated 3 flow node(s) during compilation.

 **info** *pvaI* #### Total 697 line-size(s), 63 expr(s), 66 contr(s), 0 init(s), 2326 behav(s), 4 port(s)

  **warning** (ringosc_17stg.sp:15) Global net name, "gnd", in subckt pin list. The pin will be connected to the local net. Recommend to not use global net names in subckt pin lists.
 Loading pVA library ringosc_17stg.pvadir/pvaRTL_linux.so...
1****** HSPICE -- G-2012.06 32-BIT (May 27 2012) RHEL32 ******                  
 ******  
 *sample netlist for bsim-mg

  ******  circuit name directory
 circuit number to circuit name directory
   number circuitname                     definition         multiplier
        0 main circuit
        1 xinv1.                          mg_inv             1.00 
        2 xinv2.                          mg_inv             1.00 
        3 xinv3.                          mg_inv             1.00 
        4 xinv4.                          mg_inv             1.00 
        5 xinv5.                          mg_inv             1.00 
        6 xinv6.                          mg_inv             1.00 
        7 xinv7.                          mg_inv             1.00 
        8 xinv8.                          mg_inv             1.00 
        9 xinv9.                          mg_inv             1.00 
       10 xinv10.                         mg_inv             1.00 
       11 xinv11.                         mg_inv             1.00 
       12 xinv12.                         mg_inv             1.00 
       13 xinv13.                         mg_inv             1.00 
       14 xinv14.                         mg_inv             1.00 
       15 xinv15.                         mg_inv             1.00 
       16 xinv16.                         mg_inv             1.00 
       17 xinv17.                         mg_inv             1.00 
       18 xinv1.xp1.                      bsimcmg(va)        1.00 
       19 xinv1.xn1.                      bsimcmg(va)        1.00 
       20 xinv2.xp1.                      bsimcmg(va)        1.00 
       21 xinv2.xn1.                      bsimcmg(va)        1.00 
       22 xinv3.xp1.                      bsimcmg(va)        1.00 
       23 xinv3.xn1.                      bsimcmg(va)        1.00 
       24 xinv4.xp1.                      bsimcmg(va)        1.00 
       25 xinv4.xn1.                      bsimcmg(va)        1.00 
       26 xinv5.xp1.                      bsimcmg(va)        1.00 
       27 xinv5.xn1.                      bsimcmg(va)        1.00 
       28 xinv6.xp1.                      bsimcmg(va)        1.00 
       29 xinv6.xn1.                      bsimcmg(va)        1.00 
       30 xinv7.xp1.                      bsimcmg(va)        1.00 
       31 xinv7.xn1.                      bsimcmg(va)        1.00 
       32 xinv8.xp1.                      bsimcmg(va)        1.00 
       33 xinv8.xn1.                      bsimcmg(va)        1.00 
       34 xinv9.xp1.                      bsimcmg(va)        1.00 
       35 xinv9.xn1.                      bsimcmg(va)        1.00 
       36 xinv10.xp1.                     bsimcmg(va)        1.00 
       37 xinv10.xn1.                     bsimcmg(va)        1.00 
       38 xinv11.xp1.                     bsimcmg(va)        1.00 
       39 xinv11.xn1.                     bsimcmg(va)        1.00 
       40 xinv12.xp1.                     bsimcmg(va)        1.00 
       41 xinv12.xn1.                     bsimcmg(va)        1.00 
       42 xinv13.xp1.                     bsimcmg(va)        1.00 
       43 xinv13.xn1.                     bsimcmg(va)        1.00 
       44 xinv14.xp1.                     bsimcmg(va)        1.00 
       45 xinv14.xn1.                     bsimcmg(va)        1.00 
       46 xinv15.xp1.                     bsimcmg(va)        1.00 
       47 xinv15.xn1.                     bsimcmg(va)        1.00 
       48 xinv16.xp1.                     bsimcmg(va)        1.00 
       49 xinv16.xn1.                     bsimcmg(va)        1.00 
       50 xinv17.xp1.                     bsimcmg(va)        1.00 
       51 xinv17.xn1.                     bsimcmg(va)        1.00 
 **info** *pvaI* Creating Verilog-A module 'bsimcmg' for XINV17.XN1

 **info** *pvaI* Creating Verilog-A module 'bsimcmg' for XINV17.XP1

  
      
 *****************************************************************
 ******  option summary
 ******
 runlvl  = 3         bypass  = 2         
  Opening plot unit= 15
 file=ringosc_17stg.pa0                                                        

1****** HSPICE -- G-2012.06 32-BIT (May 27 2012) RHEL32 ******                  
 ******  
 *sample netlist for bsim-mg

  ******  operating point information tnom=  25.000 temp=  25.000 *****
 ***** operating point status is voltage   simulation time is     0.     
     node    =voltage       node    =voltage       node    =voltage

 + 0:1       =   1.0000   0:2       = 2.908e-08  0:3       =   1.0000 
 + 0:4       = 2.908e-08  0:5       =   1.0000   0:6       = 2.908e-08
 + 0:7       =   1.0000   0:8       = 2.908e-08  0:9       =   1.0000 
 + 0:10      = 2.908e-08  0:11      =   1.0000   0:12      = 2.908e-08
 + 0:13      =   1.0000   0:14      = 2.908e-08  0:15      =   1.0000 
 + 0:16      = 2.908e-08  0:17      =   1.0000   0:supply  =   1.0000 

 ******  
 *sample netlist for bsim-mg

  ******  transient analysis tnom=  25.000 temp=  25.000 *****
x

        time    voltage    
                     1     
    0.            1.0000   
  1.0000e-12      0.4574   
  2.0000e-12      0.1628   
  3.0000e-12    6.830e-02  
  4.0000e-12    4.286e-02  
  5.0000e-12    3.603e-02  
  6.0000e-12    2.812e-02  
  7.0000e-12    1.542e-02  
  8.0000e-12    1.081e-02  
  9.0000e-12    9.806e-03  
  1.0000e-11    5.099e-03  
  1.1000e-11    2.426e-03  
  1.2000e-11    1.159e-03  
  1.3000e-11    1.502e-04  
  1.4000e-11    6.962e-04  
  1.5000e-11    6.765e-05  
  1.6000e-11    5.314e-05  
  1.7000e-11    1.223e-04  
  1.8000e-11    9.780e-05  
  1.9000e-11    9.184e-05  
  2.0000e-11   -3.117e-05  
  2.1000e-11    4.284e-05  
  2.2000e-11    2.253e-05  
  2.3000e-11   -1.551e-05  
  2.4000e-11    5.671e-06  
  2.5000e-11   -2.174e-06  
  2.6000e-11    1.049e-05  
  2.7000e-11    7.308e-06  
  2.8000e-11   -1.412e-05  
  2.9000e-11   -3.476e-05  
  3.0000e-11   -2.937e-05  
  3.1000e-11    4.414e-05  
  3.2000e-11    2.404e-04  
  3.3000e-11    2.775e-04  
  3.4000e-11   -4.743e-04  
  3.5000e-11   -1.412e-03  
  3.6000e-11   -1.535e-03  
  3.7000e-11    2.818e-03  
  3.8000e-11    8.590e-03  
  3.9000e-11    6.121e-03  
  4.0000e-11   -1.740e-02  
  4.1000e-11   -6.452e-02  
  4.2000e-11   -5.130e-02  
  4.3000e-11    7.847e-02  
  4.4000e-11      0.3309   
  4.5000e-11      0.5740   
  4.6000e-11      0.7655   
  4.7000e-11      0.8583   
  4.8000e-11      0.9056   
  4.9000e-11      0.9467   
  5.0000e-11      0.9750   
  5.1000e-11      0.9891   
  5.2000e-11      0.9933   
  5.3000e-11      0.9949   
  5.4000e-11      0.9976   
  5.5000e-11      0.9983   
  5.6000e-11      0.9986   
  5.7000e-11      0.9989   
  5.8000e-11      0.9993   
  5.9000e-11      0.9997   
  6.0000e-11      0.9998   
  6.1000e-11      0.9998   
  6.2000e-11      0.9999   
  6.3000e-11      1.0000   
  6.4000e-11      1.0000   
  6.5000e-11      1.0000   
  6.6000e-11      1.0000   
  6.7000e-11      1.0000   
  6.8000e-11      1.0000   
  6.9000e-11      1.0000   
  7.0000e-11      1.0000   
  7.1000e-11      1.0000   
  7.2000e-11      1.0000   
  7.3000e-11      1.0000   
  7.4000e-11      1.0000   
  7.5000e-11      0.9998   
  7.6000e-11      0.9997   
  7.7000e-11      1.0000   
  7.8000e-11      1.0012   
  7.9000e-11      1.0022   
  8.0000e-11      0.9989   
  8.1000e-11      0.9916   
  8.2000e-11      0.9856   
  8.3000e-11      0.9983   
  8.4000e-11      1.0499   
  8.5000e-11      1.0848   
  8.6000e-11      0.9534   
  8.7000e-11      0.6522   
  8.8000e-11      0.3304   
  8.9000e-11      0.1248   
  9.0000e-11    6.148e-02  
  9.1000e-11    4.114e-02  
  9.2000e-11    3.555e-02  
  9.3000e-11    2.453e-02  
  9.4000e-11    1.375e-02  
  9.5000e-11    1.122e-02  
  9.6000e-11    7.775e-03  
  9.7000e-11    4.407e-03  
  9.8000e-11    1.937e-03  
  9.9000e-11    4.807e-04  
  1.0000e-10    9.013e-04  
  1.0100e-10    3.091e-04  
  1.0200e-10    9.825e-05  
  1.0300e-10    8.388e-05  
  1.0400e-10    1.370e-04  
  1.0500e-10    1.060e-04  
  1.0600e-10    2.818e-05  
  1.0700e-10    2.913e-05  
  1.0800e-10    1.994e-05  
  1.0900e-10    1.008e-05  
  1.1000e-10    2.023e-06  
  1.1100e-10   -3.124e-06  
  1.1200e-10    5.228e-06  
  1.1300e-10    9.757e-06  
  1.1400e-10    5.266e-06  
  1.1500e-10   -2.768e-05  
  1.1600e-10   -3.720e-05  
  1.1700e-10   -1.777e-05  
  1.1800e-10    1.073e-04  
  1.1900e-10    2.761e-04  
  1.2000e-10    5.359e-05  
  1.2100e-10   -7.759e-04  
  1.2200e-10   -1.619e-03  
  1.2300e-10   -7.266e-04  
  1.2400e-10    3.822e-03  
  1.2500e-10    1.083e-02  
  1.2600e-10    4.305e-03  
  1.2700e-10   -3.070e-02  
  1.2800e-10   -7.755e-02  
  1.2900e-10    2.583e-02  
  1.3000e-10      0.1618   
  1.3100e-10      0.4250   
  1.3200e-10      0.6293   
  1.3300e-10      0.7979   
  1.3400e-10      0.8736   
  1.3500e-10      0.9188   
  1.3600e-10      0.9556   
  1.3700e-10      0.9824   
  1.3800e-10      0.9921   
  1.3900e-10      0.9940   
  1.4000e-10      0.9956   
  1.4100e-10      0.9985   
  1.4200e-10      0.9984   
  1.4300e-10      0.9987   
  1.4400e-10      0.9990   
  1.4500e-10      0.9995   
  1.4600e-10      0.9998   
  1.4700e-10      0.9998   
  1.4800e-10      0.9999   
  1.4900e-10      1.0000   
  1.5000e-10      1.0000   
  1.5100e-10      1.0000   
  1.5200e-10      1.0000   
  1.5300e-10      1.0000   
  1.5400e-10      1.0000   
  1.5500e-10      1.0000   
  1.5600e-10      1.0000   
  1.5700e-10      1.0000   
  1.5800e-10      1.0000   
  1.5900e-10      1.0000   
  1.6000e-10      1.0000   
  1.6100e-10      0.9999   
  1.6200e-10      0.9997   
  1.6300e-10      0.9997   
  1.6400e-10      1.0003   
  1.6500e-10      1.0019   
  1.6600e-10      1.0019   
  1.6700e-10      0.9964   
  1.6800e-10      0.9884   
  1.6900e-10      0.9870   
  1.7000e-10      1.0166   
  1.7100e-10      1.0746   
  1.7200e-10      1.0518   
  1.7300e-10      0.8629   
  1.7400e-10      0.5175   
  1.7500e-10      0.2552   
  1.7600e-10    9.196e-02  
  1.7700e-10    5.238e-02  
  1.7800e-10    3.859e-02  
  1.7900e-10    3.293e-02  
  1.8000e-10    1.859e-02  
  1.8100e-10    1.114e-02  
  1.8200e-10    1.062e-02  
  1.8300e-10    6.354e-03  
  1.8400e-10    3.145e-03  
  1.8500e-10    1.111e-03  
  1.8600e-10    7.963e-04  
  1.8700e-10    6.014e-04  
  1.8800e-10    1.425e-04  
  1.8900e-10    1.234e-04  
  1.9000e-10    1.084e-04  
  1.9100e-10    1.407e-04  
  1.9200e-10    8.109e-05  
  1.9300e-10   -3.575e-06  
  1.9400e-10    2.280e-05  
  1.9500e-10    1.799e-05  
  1.9600e-10    6.057e-06  
  1.9700e-10   -6.235e-07  
  1.9800e-10    6.838e-07  
  1.9900e-10    7.649e-06  
  2.0000e-10    6.883e-06  
  2.0100e-10    1.355e-06  
  2.0200e-10   -4.300e-05  
  2.0300e-10   -2.508e-05  
  2.0400e-10    2.690e-05  
  2.0500e-10    1.376e-04  
  2.0600e-10    2.696e-04  
  2.0700e-10   -1.855e-04  
  2.0800e-10   -1.108e-03  
  2.0900e-10   -1.495e-03  
  2.1000e-10    7.382e-04  
  2.1100e-10    7.645e-03  
  2.1200e-10    8.826e-03  
  2.1300e-10   -1.402e-02  
  2.1400e-10   -4.974e-02  
  2.1500e-10   -6.001e-02  
  2.1600e-10    8.538e-02  
  2.1700e-10      0.2731   
  2.1800e-10      0.5200   
  2.1900e-10      0.7207   
  2.2000e-10      0.8416   
  2.2100e-10      0.8954   
  2.2200e-10      0.9370   
  2.2300e-10      0.9688   
  2.2400e-10      0.9878   
  2.2500e-10      0.9933   
  2.2600e-10      0.9948   
  2.2700e-10      0.9970   
  2.2800e-10      0.9987   
  2.2900e-10      0.9983   
  2.3000e-10      0.9989   
  2.3100e-10      0.9992   
  2.3200e-10      0.9995   
  2.3300e-10      0.9999   
  2.3400e-10      0.9999   
  2.3500e-10      0.9999   
  2.3600e-10      1.0000   
  2.3700e-10      1.0000   
  2.3800e-10      1.0000   
  2.3900e-10      1.0000   
  2.4000e-10      1.0000   
  2.4100e-10      1.0000   
  2.4200e-10      1.0000   
  2.4300e-10      1.0000   
  2.4400e-10      1.0000   
  2.4500e-10      1.0000   
  2.4600e-10      1.0000   
  2.4700e-10      1.0000   
  2.4800e-10      0.9998   
  2.4900e-10      0.9997   
  2.5000e-10      0.9999   
  2.5100e-10      1.0011   
  2.5200e-10      1.0023   
  2.5300e-10      0.9994   
  2.5400e-10      0.9935   
  2.5500e-10      0.9869   
  2.5600e-10      0.9952   
  2.5700e-10      1.0404   
  2.5800e-10      1.0795   
  2.5900e-10      0.9850   
  2.6000e-10      0.7110   
  2.6100e-10      0.3695   
  2.6200e-10      0.1383   
  2.6300e-10    6.177e-02  
  2.6400e-10    4.260e-02  
  2.6500e-10    3.717e-02  
  2.6600e-10    2.558e-02  
  2.6700e-10    1.419e-02  
  2.6800e-10    1.179e-02  
  2.6900e-10    8.300e-03  
  2.7000e-10    4.990e-03  
  2.7100e-10    2.264e-03  
  2.7200e-10    6.635e-04  
  2.7300e-10    7.530e-04  
  2.7400e-10    4.924e-04  
  2.7500e-10    4.186e-06  
  2.7600e-10    1.382e-04  
  2.7700e-10    1.336e-04  
  2.7800e-10    1.146e-04  
  2.7900e-10    2.362e-05  
  2.8000e-10    3.403e-05  
  2.8100e-10    2.020e-05  
  2.8200e-10    1.196e-05  
  2.8300e-10    2.333e-06  
  2.8400e-10   -2.067e-06  
  2.8500e-10    4.387e-06  
  2.8600e-10    9.222e-06  
  2.8700e-10    5.765e-06  
  2.8800e-10   -2.019e-05  
  2.8900e-10   -4.110e-05  
  2.9000e-10   -1.877e-05  
  2.9100e-10    9.181e-05  
  2.9200e-10    2.548e-04  
  2.9300e-10    1.180e-04  
  2.9400e-10   -7.932e-04  
  2.9500e-10   -1.616e-03  
  2.9600e-10   -1.187e-03  
  2.9700e-10    3.664e-03  
  2.9800e-10    8.516e-03  
  2.9900e-10    4.852e-03  
  3.0000e-10   -2.913e-02  
  3.0100e-10   -6.878e-02  
  3.0200e-10   -6.980e-02  
  3.0300e-10      0.1131   
  3.0400e-10      0.3821   
  3.0500e-10      0.6047   
  3.0600e-10      0.7745   
  3.0700e-10      0.8629   
  3.0800e-10      0.9118   
  3.0900e-10      0.9534   
  3.1000e-10      0.9764   
  3.1100e-10      0.9912   
  3.1200e-10      0.9948   
  3.1300e-10      0.9954   
  3.1400e-10      0.9980   
  3.1500e-10      0.9985   
  3.1600e-10      0.9985   
  3.1700e-10      0.9989   
  3.1800e-10      0.9994   
  3.1900e-10      0.9997   
  3.2000e-10      0.9998   
  3.2100e-10      0.9999   
  3.2200e-10      1.0000   
  3.2300e-10      1.0000   
  3.2400e-10      1.0000   
  3.2500e-10      1.0000   
  3.2600e-10      1.0000   
  3.2700e-10      1.0000   
  3.2800e-10      1.0000   
  3.2900e-10      1.0000   
  3.3000e-10      1.0000   
  3.3100e-10      1.0000   
  3.3200e-10      1.0000   
  3.3300e-10      1.0000   
  3.3400e-10      0.9999   
  3.3500e-10      0.9997   
  3.3600e-10      0.9997   
  3.3700e-10      1.0002   
  3.3800e-10      1.0014   
  3.3900e-10      1.0019   
  3.4000e-10      0.9981   
  3.4100e-10      0.9904   
  3.4200e-10      0.9840   
  3.4300e-10      1.0091   
  3.4400e-10      1.0645   
  3.4500e-10      1.0507   
  3.4600e-10      0.9178   
  3.4700e-10      0.6048   
  3.4800e-10      0.3013   
  3.4900e-10      0.1124   
  3.5000e-10    5.693e-02  
  3.5100e-10    3.719e-02  
  3.5200e-10    3.339e-02  
  3.5300e-10    2.147e-02  
  3.5400e-10    1.362e-02  
  3.5500e-10    1.123e-02  
  3.5600e-10    7.529e-03  
  3.5700e-10    3.778e-03  
  3.5800e-10    1.052e-03  
  3.5900e-10    7.119e-04  
  3.6000e-10    6.086e-04  
  3.6100e-10    1.886e-04  
  3.6200e-10    1.426e-04  
  3.6300e-10    9.259e-05  
  3.6400e-10    1.330e-04  
  3.6500e-10    9.961e-05  
  3.6600e-10    1.833e-05  
  3.6700e-10    1.504e-05  
  3.6800e-10    2.449e-05  
  3.6900e-10    8.884e-06  
  3.7000e-10   -3.218e-06  
  3.7100e-10      0.       
  3.7200e-10    8.066e-06  
  3.7300e-10    5.063e-06  
  3.7400e-10    7.139e-06  
  3.7500e-10   -3.327e-05  
  3.7600e-10   -3.823e-05  
  3.7700e-10   -1.021e-06  
  3.7800e-10    1.744e-04  
  3.7900e-10    3.016e-04  
  3.8000e-10   -7.979e-05  
  3.8100e-10   -1.082e-03  
  3.8200e-10   -1.895e-03  
  3.8300e-10   -3.912e-04  
  3.8400e-10    6.631e-03  
  3.8500e-10    1.045e-02  
  3.8600e-10   -4.447e-03  
  3.8700e-10   -4.339e-02  
  3.8800e-10   -4.733e-02  
  3.8900e-10    6.133e-02  
  3.9000e-10      0.2288   
  3.9100e-10      0.4724   
  3.9200e-10      0.6872   
  3.9300e-10      0.8270   
  3.9400e-10      0.8856   
  3.9500e-10      0.9305   
  3.9600e-10      0.9647   
  3.9700e-10      0.9848   
  3.9800e-10      0.9931   
  3.9900e-10      0.9949   
  4.0000e-10      0.9956   
  4.0100e-10      0.9988   
  4.0200e-10      0.9985   
  4.0300e-10      0.9987   
  4.0400e-10      0.9992   
  4.0500e-10      0.9995   
  4.0600e-10      1.0000   
  4.0700e-10      0.9998   
  4.0800e-10      0.9999   
  4.0900e-10      1.0000   
  4.1000e-10      1.0000   
  4.1100e-10      1.0000   
  4.1200e-10      1.0000   
  4.1300e-10      1.0000   
  4.1400e-10      1.0000   
  4.1500e-10      1.0000   
  4.1600e-10      1.0000   
  4.1700e-10      1.0000   
  4.1800e-10      1.0000   
  4.1900e-10      1.0000   
  4.2000e-10      1.0000   
  4.2100e-10      0.9999   
  4.2200e-10      0.9997   
  4.2300e-10      0.9998   
  4.2400e-10      1.0007   
  4.2500e-10      1.0020   
  4.2600e-10      1.0012   
  4.2700e-10      0.9946   
  4.2800e-10      0.9874   
  4.2900e-10      0.9894   
  4.3000e-10      1.0280   
  4.3100e-10      1.0789   
  4.3200e-10      1.0255   
  4.3300e-10      0.7916   
  4.3400e-10      0.4547   
  4.3500e-10      0.1897   
  4.3600e-10    7.587e-02  
  4.3700e-10    4.704e-02  
  4.3800e-10    3.820e-02  
  4.3900e-10    2.908e-02  
  4.4000e-10    1.687e-02  
  4.4100e-10    1.192e-02  
  4.4200e-10    9.803e-03  
  4.4300e-10    5.598e-03  
  4.4400e-10    2.501e-03  
  4.4500e-10    9.786e-04  
  4.4600e-10    7.551e-04  
  4.4700e-10    5.610e-04  
  4.4800e-10    5.025e-05  
  4.4900e-10    1.557e-04  
  4.5000e-10    9.369e-05  
  4.5100e-10    1.619e-04  
  4.5200e-10    5.343e-05  
  4.5300e-10    2.683e-05  
  4.5400e-10    2.170e-05  
  4.5500e-10    1.364e-05  
  4.5600e-10    5.866e-06  
  4.5700e-10   -8.605e-07  
  4.5800e-10   -1.405e-06  
  4.5900e-10    1.024e-05  
  4.6000e-10    5.795e-06  
  4.6100e-10   -8.214e-06  
  4.6200e-10   -5.789e-05  
  4.6300e-10   -1.134e-05  
  4.6400e-10    3.017e-05  
  4.6500e-10    2.159e-04  
  4.6600e-10    3.268e-04  
  4.6700e-10   -4.044e-04  
  4.6800e-10   -1.345e-03  
  4.6900e-10   -1.574e-03  
  4.7000e-10    2.138e-03  
  4.7100e-10    9.851e-03  
  4.7200e-10    6.884e-03  
  4.7300e-10   -1.696e-02  
  4.7400e-10   -6.291e-02  
  4.7500e-10   -3.959e-02  
  4.7600e-10    6.748e-02  
  4.7700e-10      0.3222   
  4.7800e-10      0.5677   
  4.7900e-10      0.7533   
  4.8000e-10      0.8580   
  4.8100e-10      0.9042   
  4.8200e-10      0.9438   
  4.8300e-10      0.9754   
  4.8400e-10      0.9885   
  4.8500e-10      0.9940   
  4.8600e-10      0.9949   
  4.8700e-10      0.9968   
  4.8800e-10      0.9987   
  4.8900e-10      0.9986   
  4.9000e-10      0.9990   
  4.9100e-10      0.9993   
  4.9200e-10      0.9997   
  4.9300e-10      0.9999   
  4.9400e-10      0.9998   
  4.9500e-10      1.0000   
  4.9600e-10      1.0000   
  4.9700e-10      1.0000   
  4.9800e-10      1.0000   
  4.9900e-10      1.0000   
  5.0000e-10      1.0000   
  5.0100e-10      1.0000   
  5.0200e-10      1.0000   
  5.0300e-10      1.0000   
  5.0400e-10      1.0000   
  5.0500e-10      1.0000   
  5.0600e-10      1.0000   
  5.0700e-10      1.0000   
  5.0800e-10      0.9997   
  5.0900e-10      0.9997   
  5.1000e-10      1.0000   
  5.1100e-10      1.0011   
  5.1200e-10      1.0023   
  5.1300e-10      0.9994   
  5.1400e-10      0.9920   
  5.1500e-10      0.9854   
  5.1600e-10      1.0005   
  5.1700e-10      1.0530   
  5.1800e-10      1.0790   
  5.1900e-10      0.9712   
  5.2000e-10      0.6581   
  5.2100e-10      0.3642   
  5.2200e-10      0.1435   
  5.2300e-10    6.227e-02  
  5.2400e-10    4.305e-02  
  5.2500e-10    3.490e-02  
  5.2600e-10    2.543e-02  
  5.2700e-10    1.280e-02  
  5.2800e-10    1.134e-02  
  5.2900e-10    8.226e-03  
  5.3000e-10    4.537e-03  
  5.3100e-10    1.672e-03  
  5.3200e-10    7.523e-04  
  5.3300e-10    7.450e-04  
  5.3400e-10    2.603e-04  
  5.3500e-10    1.495e-04  
  5.3600e-10    1.000e-04  
  5.3700e-10    1.318e-04  
  5.3800e-10    1.139e-04  
  5.3900e-10    3.731e-05  
  5.4000e-10    1.141e-05  
  5.4100e-10    2.295e-05  
  5.4200e-10    1.104e-05  
  5.4300e-10    1.400e-06  
  5.4400e-10   -1.325e-06  
  5.4500e-10    5.063e-06  
  5.4600e-10    7.372e-06  
  5.4700e-10    6.006e-06  
  5.4800e-10   -1.699e-05  
  5.4900e-10   -4.112e-05  
  5.5000e-10   -3.534e-06  
  5.5100e-10    8.704e-05  
  5.5200e-10    2.833e-04  
  5.5300e-10    1.014e-04  
  5.5400e-10   -7.586e-04  
  5.5500e-10   -1.659e-03  
  5.5600e-10   -6.135e-04  
  5.5700e-10    3.725e-03  
  5.5800e-10    1.186e-02  
  5.5900e-10    3.274e-03  
  5.6000e-10   -3.076e-02  
  5.6100e-10   -6.886e-02  
  5.6200e-10   -5.270e-02  
  5.6300e-10      0.1447   
  5.6400e-10      0.4156   
  5.6500e-10      0.6334   
  5.6600e-10      0.7979   
  5.6700e-10      0.8748   
  5.6800e-10      0.9187   
  5.6900e-10      0.9548   
  5.7000e-10      0.9819   
  5.7100e-10      0.9915   
  5.7200e-10      0.9942   
  5.7300e-10      0.9955   
  5.7400e-10      0.9983   
  5.7500e-10      0.9984   
  5.7600e-10      0.9987   
  5.7700e-10      0.9990   
  5.7800e-10      0.9995   
  5.7900e-10      0.9998   
  5.8000e-10      0.9998   
  5.8100e-10      0.9999   
  5.8200e-10      1.0000   
  5.8300e-10      1.0000   
  5.8400e-10      1.0000   
  5.8500e-10      1.0000   
  5.8600e-10      1.0000   
  5.8700e-10      1.0000   
  5.8800e-10      1.0000   
  5.8900e-10      1.0000   
  5.9000e-10      1.0000   
  5.9100e-10      1.0000   
  5.9200e-10      1.0000   
  5.9300e-10      1.0000   
  5.9400e-10      0.9999   
  5.9500e-10      0.9997   
  5.9600e-10      0.9997   
  5.9700e-10      1.0004   
  5.9800e-10      1.0017   
  5.9900e-10      1.0020   
  6.0000e-10      0.9969   
  6.0100e-10      0.9886   
  6.0200e-10      0.9889   
  6.0300e-10      1.0183   
  6.0400e-10      1.0742   
  6.0500e-10      1.0551   
  6.0600e-10      0.8641   
  6.0700e-10      0.5471   
  6.0800e-10      0.2492   
  6.0900e-10    8.851e-02  
  6.1000e-10    5.049e-02  
  6.1100e-10    3.869e-02  
  6.1200e-10    3.241e-02  
  6.1300e-10    1.977e-02  
  6.1400e-10    1.287e-02  
  6.1500e-10    1.077e-02  
  6.1600e-10    6.720e-03  
  6.1700e-10    3.391e-03  
  6.1800e-10    1.299e-03  
  6.1900e-10    7.795e-04  
  6.2000e-10    6.585e-04  
  6.2100e-10    1.446e-04  
  6.2200e-10    7.391e-05  
  6.2300e-10    1.209e-04  
  6.2400e-10    1.327e-04  
  6.2500e-10    7.344e-05  
  6.2600e-10    1.810e-05  
  6.2700e-10    2.302e-05  
  6.2800e-10    2.501e-05  
  6.2900e-10      0.       
  6.3000e-10   -3.735e-06  
  6.3100e-10    4.884e-06  
  6.3200e-10    3.749e-06  
  6.3300e-10    7.435e-06  
  6.3400e-10      0.       
  6.3500e-10   -3.326e-05  
  6.3600e-10   -4.011e-05  
  6.3700e-10    2.808e-05  
  6.3800e-10    1.664e-04  
  6.3900e-10    3.201e-04  
  6.4000e-10   -2.957e-04  
  6.4100e-10   -1.220e-03  
  6.4200e-10   -1.920e-03  
  6.4300e-10    4.086e-04  
  6.4400e-10    7.915e-03  
  6.4500e-10    1.188e-02  
  6.4600e-10   -8.964e-03  
  6.4700e-10   -5.017e-02  
  6.4800e-10   -8.533e-02  
  6.4900e-10    1.482e-02  
  6.5000e-10      0.2727   
  6.5100e-10      0.5234   
  6.5200e-10      0.7301   
  6.5300e-10      0.8455   
  6.5400e-10      0.8958   
  6.5500e-10      0.9384   
  6.5600e-10      0.9697   
  6.5700e-10      0.9863   
  6.5800e-10      0.9929   
  6.5900e-10      0.9945   
  6.6000e-10      0.9961   
  6.6100e-10      0.9986   
  6.6200e-10      0.9988   
  6.6300e-10      0.9990   
  6.6400e-10      0.9992   
  6.6500e-10      0.9997   
  6.6600e-10      0.9999   
  6.6700e-10      0.9998   
  6.6800e-10      1.0000   
  6.6900e-10      1.0000   
  6.7000e-10      1.0000   
  6.7100e-10      1.0000   
  6.7200e-10      1.0000   
  6.7300e-10      1.0000   
  6.7400e-10      1.0000   
  6.7500e-10      1.0000   
  6.7600e-10      1.0000   
  6.7700e-10      1.0000   
  6.7800e-10      1.0000   
  6.7900e-10      1.0000   
  6.8000e-10      1.0000   
  6.8100e-10      0.9998   
  6.8200e-10      0.9997   
  6.8300e-10      0.9999   
  6.8400e-10      1.0007   
  6.8500e-10      1.0020   
  6.8600e-10      1.0006   
  6.8700e-10      0.9944   
  6.8800e-10      0.9864   
  6.8900e-10      0.9961   
  6.9000e-10      1.0332   
  6.9100e-10      1.0689   
  6.9200e-10      1.0066   
  6.9300e-10      0.7659   
  6.9400e-10      0.4528   
  6.9500e-10      0.2146   
  6.9600e-10    8.073e-02  
  6.9700e-10    4.767e-02  
  6.9800e-10    3.701e-02  
  6.9900e-10    3.024e-02  
  7.0000e-10    1.767e-02  
  7.0100e-10    1.050e-02  
  7.0200e-10    8.691e-03  
  7.0300e-10    5.465e-03  
  7.0400e-10    2.429e-03  
  7.0500e-10    1.059e-03  
  7.0600e-10    4.323e-04  
  7.0700e-10    4.083e-04  
  7.0800e-10    1.437e-04  
  7.0900e-10    1.056e-04  
  7.1000e-10    9.855e-05  
  7.1100e-10    1.078e-04  
  7.1200e-10    9.939e-05  
  7.1300e-10   -3.007e-05  
  7.1400e-10    3.454e-05  
  7.1500e-10    2.111e-05  
  7.1600e-10   -9.068e-06  
  7.1700e-10   -3.578e-06  
  7.1800e-10    3.336e-06  
  7.1900e-10    5.349e-06  
  7.2000e-10    5.886e-06  
  7.2100e-10   -5.148e-06  
  7.2200e-10   -3.784e-05  
  7.2300e-10   -3.351e-05  
  7.2400e-10    2.213e-05  
  7.2500e-10    2.295e-04  
  7.2600e-10    2.474e-04  
  7.2700e-10   -5.205e-04  
  7.2800e-10   -1.417e-03  
  7.2900e-10   -1.605e-03  
  7.3000e-10    2.616e-03  
  7.3100e-10    8.165e-03  
  7.3200e-10    5.950e-03  
  7.3300e-10   -1.275e-02  
  7.3400e-10   -6.265e-02  
  7.3500e-10   -8.178e-02  
  7.3600e-10    6.283e-02  
  7.3700e-10      0.3381   
  7.3800e-10      0.5703   
  7.3900e-10      0.7617   
  7.4000e-10      0.8585   
  7.4100e-10      0.9048   
  7.4200e-10      0.9468   
  7.4300e-10      0.9740   
  7.4400e-10      0.9885   
  7.4500e-10      0.9933   
  7.4600e-10      0.9948   
  7.4700e-10      0.9972   
  7.4800e-10      0.9986   
  7.4900e-10      0.9986   
  7.5000e-10      0.9988   
  7.5100e-10      0.9993   
  7.5200e-10      0.9998   
  7.5300e-10      0.9998   
  7.5400e-10      0.9999   
  7.5500e-10      0.9999   
  7.5600e-10      1.0000   
  7.5700e-10      1.0000   
  7.5800e-10      1.0000   
  7.5900e-10      1.0000   
  7.6000e-10      1.0000   
  7.6100e-10      1.0000   
  7.6200e-10      1.0000   
  7.6300e-10      1.0000   
  7.6400e-10      1.0000   
  7.6500e-10      1.0000   
  7.6600e-10      1.0000   
  7.6700e-10      1.0000   
  7.6800e-10      0.9998   
  7.6900e-10      0.9997   
  7.7000e-10      1.0000   
  7.7100e-10      1.0010   
  7.7200e-10      1.0024   
  7.7300e-10      0.9997   
  7.7400e-10      0.9918   
  7.7500e-10      0.9847   
  7.7600e-10      1.0015   
  7.7700e-10      1.0510   
  7.7800e-10      1.0775   
  7.7900e-10      0.9684   
  7.8000e-10      0.6648   
  7.8100e-10      0.3747   
  7.8200e-10      0.1421   
  7.8300e-10    6.384e-02  
  7.8400e-10    4.081e-02  
  7.8500e-10    3.697e-02  
  7.8600e-10    2.440e-02  
  7.8700e-10    1.354e-02  
  7.8800e-10    1.178e-02  
  7.8900e-10    8.280e-03  
  7.9000e-10    4.493e-03  
  7.9100e-10    1.613e-03  
  7.9200e-10    8.371e-04  
  7.9300e-10    7.520e-04  
  7.9400e-10    3.062e-04  
  7.9500e-10    5.399e-05  
  7.9600e-10    1.024e-04  
  7.9700e-10    1.399e-04  
  7.9800e-10    1.265e-04  
  7.9900e-10    3.136e-05  
  8.0000e-10    1.991e-05  
  8.0100e-10    2.093e-05  
  8.0200e-10    1.072e-05  
  8.0300e-10      0.       
  8.0400e-10   -6.272e-07  
  8.0500e-10    5.157e-06  
  8.0600e-10    8.254e-06  
  8.0700e-10    4.521e-06  
  8.0800e-10   -3.212e-05  
  8.0900e-10   -3.210e-05  
  8.1000e-10   -5.096e-07  
  8.1100e-10    8.838e-05  
  8.1200e-10    2.855e-04  
  8.1300e-10    1.231e-04  
  8.1400e-10   -8.341e-04  
  8.1500e-10   -1.746e-03  
  8.1600e-10   -1.211e-03  
  8.1700e-10    4.948e-03  
  8.1800e-10    1.090e-02  
  8.1900e-10    4.562e-04  
  8.2000e-10   -3.342e-02  
  8.2100e-10   -7.329e-02  
  8.2200e-10   -1.790e-02  
  8.2300e-10      0.1698   
  8.2400e-10      0.4233   
  8.2500e-10      0.6488   
  8.2600e-10      0.8090   
  8.2700e-10      0.8784   
  8.2800e-10      0.9212   
  8.2900e-10      0.9575   
  8.3000e-10      0.9828   
  8.3100e-10      0.9914   
  8.3200e-10      0.9943   
  8.3300e-10      0.9959   
  8.3400e-10      0.9981   
  8.3500e-10      0.9984   
  8.3600e-10      0.9988   
  8.3700e-10      0.9990   
  8.3800e-10      0.9995   
  8.3900e-10      0.9998   
  8.4000e-10      0.9998   
  8.4100e-10      0.9999   
  8.4200e-10      1.0000   
  8.4300e-10      1.0000   
  8.4400e-10      1.0000   
  8.4500e-10      1.0000   
  8.4600e-10      1.0000   
  8.4700e-10      1.0000   
  8.4800e-10      1.0000   
  8.4900e-10      1.0000   
  8.5000e-10      1.0000   
  8.5100e-10      1.0000   
  8.5200e-10      1.0000   
  8.5300e-10      1.0000   
  8.5400e-10      0.9999   
  8.5500e-10      0.9997   
  8.5600e-10      0.9997   
  8.5700e-10      1.0004   
  8.5800e-10      1.0018   
  8.5900e-10      1.0018   
  8.6000e-10      0.9965   
  8.6100e-10      0.9890   
  8.6200e-10      0.9900   
  8.6300e-10      1.0130   
  8.6400e-10      1.0735   
  8.6500e-10      1.0617   
  8.6600e-10      0.8659   
  8.6700e-10      0.5465   
  8.6800e-10      0.2463   
  8.6900e-10    9.278e-02  
  8.7000e-10    4.955e-02  
  8.7100e-10    3.787e-02  
  8.7200e-10    3.161e-02  
  8.7300e-10    1.946e-02  
  8.7400e-10    1.251e-02  
  8.7500e-10    1.138e-02  
  8.7600e-10    6.408e-03  
  8.7700e-10    3.385e-03  
  8.7800e-10    1.098e-03  
  8.7900e-10    7.452e-04  
  8.8000e-10    5.640e-04  
  8.8100e-10    1.954e-04  
  8.8200e-10    1.337e-04  
  8.8300e-10    1.107e-04  
  8.8400e-10    8.965e-05  
  8.8500e-10    1.168e-04  
  8.8600e-10    6.031e-05  
  8.8700e-10   -6.422e-05  
  8.8800e-10    5.687e-05  
  8.8900e-10   -2.442e-06  
  8.9000e-10   -4.442e-06  
  8.9100e-10    3.718e-06  
  8.9200e-10    3.785e-06  
  8.9300e-10    4.927e-06  
  8.9400e-10    7.921e-06  
  8.9500e-10   -2.791e-05  
  8.9600e-10   -4.511e-05  
  8.9700e-10   -4.957e-06  
  8.9800e-10    1.654e-04  
  8.9900e-10    3.087e-04  
  9.0000e-10   -1.375e-04  
  9.0100e-10   -1.121e-03  
  9.0200e-10   -1.717e-03  
  9.0300e-10    4.048e-04  
  9.0400e-10    6.654e-03  
  9.0500e-10    9.741e-03  
  9.0600e-10   -7.856e-03  
  9.0700e-10   -4.252e-02  
  9.0800e-10   -8.101e-02  
  9.0900e-10   -2.631e-03  
  9.1000e-10      0.2352   
  9.1100e-10      0.4946   
  9.1200e-10      0.6943   
  9.1300e-10      0.8328   
  9.1400e-10      0.8954   
  9.1500e-10      0.9316   
  9.1600e-10      0.9668   
  9.1700e-10      0.9851   
  9.1800e-10      0.9927   
  9.1900e-10      0.9945   
  9.2000e-10      0.9958   
  9.2100e-10      0.9985   
  9.2200e-10      0.9985   
  9.2300e-10      0.9988   
  9.2400e-10      0.9991   
  9.2500e-10      0.9995   
  9.2600e-10      0.9998   
  9.2700e-10      0.9999   
  9.2800e-10      0.9999   
  9.2900e-10      1.0000   
  9.3000e-10      1.0000   
  9.3100e-10      1.0000   
  9.3200e-10      1.0000   
  9.3300e-10      1.0000   
  9.3400e-10      1.0000   
  9.3500e-10      1.0000   
  9.3600e-10      1.0000   
  9.3700e-10      1.0000   
  9.3800e-10      1.0000   
  9.3900e-10      1.0000   
  9.4000e-10      1.0000   
  9.4100e-10      0.9998   
  9.4200e-10      0.9997   
  9.4300e-10      0.9997   
  9.4400e-10      1.0007   
  9.4500e-10      1.0022   
  9.4600e-10      1.0007   
  9.4700e-10      0.9948   
  9.4800e-10      0.9870   
  9.4900e-10      0.9943   
  9.5000e-10      1.0258   
  9.5100e-10      1.0668   
  9.5200e-10      1.0265   
  9.5300e-10      0.8125   
  9.5400e-10      0.4736   
  9.5500e-10      0.2606   
  9.5600e-10    8.160e-02  
  9.5700e-10    4.917e-02  
  9.5800e-10    3.740e-02  
  9.5900e-10    2.902e-02  
  9.6000e-10    1.870e-02  
  9.6100e-10    1.134e-02  
  9.6200e-10    1.017e-02  
  9.6300e-10    5.606e-03  
  9.6400e-10    2.801e-03  
  9.6500e-10    1.335e-03  
  9.6600e-10    5.197e-05  
  9.6700e-10    4.221e-04  
  9.6800e-10    1.937e-04  
  9.6900e-10    1.015e-04  
  9.7000e-10    9.960e-05  
  9.7100e-10    1.251e-04  
  9.7200e-10    7.218e-05  
  9.7300e-10   -7.643e-06  
  9.7400e-10    2.997e-05  
  9.7500e-10    1.352e-05  
  9.7600e-10    5.060e-06  
  9.7700e-10   -6.065e-06  
  9.7800e-10    5.623e-06  
  9.7900e-10    4.976e-06  
  9.8000e-10    7.753e-06  
  9.8100e-10      0.       
  9.8200e-10   -4.862e-05  
  9.8300e-10   -2.714e-05  
  9.8400e-10    3.891e-05  
  9.8500e-10    2.208e-04  
  9.8600e-10    3.026e-04  
  9.8700e-10   -4.487e-04  
  9.8800e-10   -1.344e-03  
  9.8900e-10   -1.618e-03  
  9.9000e-10    2.042e-03  
  9.9100e-10    7.993e-03  
  9.9200e-10    1.013e-02  
  9.9300e-10   -1.322e-02  
  9.9400e-10   -5.525e-02  
  9.9500e-10   -7.245e-02  
  9.9600e-10    3.902e-02  
  9.9700e-10      0.3103   
  9.9800e-10      0.5475   
  9.9900e-10      0.7477   
  1.0000e-09      0.8574   
y
-----------------------------------------------
 t1= 9.2146e-13
 t2= 2.6059e-10
 period= 8.6556e-11
 delay_per_stage= 2.5458e-12

          ***** job concluded
1****** HSPICE -- G-2012.06 32-BIT (May 27 2012) RHEL32 ******                  
 ******  
 *sample netlist for bsim-mg

  ******  job statistics summary tnom=  25.000 temp=  25.000 *****
  
  
 ******  Machine Information  ******
 CPU:
 model name	: Intel(R) Xeon(R) CPU E5-2643 0 @ 3.30GHz
 cpu MHz	: 3299.839
  
 OS:
 Linux version 2.6.32-358.18.1.el6.x86_64 (mockbuild@x86-003.build.bos.redhat.com) (gcc version 4.4.7 20120313 (Red Hat 4.4.7-3) (GCC) ) #1 SMP Fri Aug 2 17:04:38 EDT 2013


  ******  HSPICE Threads Information  ******

  Command Line Threads Count :     1
  Available CPU Count        :     8
  Actual Threads Count       :     1


  ******  Circuit Statistics  ******
  # nodes       =     189 # elements   =      35
  # resistors   =       0 # capacitors =       0 # inductors   =       0
  # mutual_inds =       0 # vccs       =       0 # vcvs        =       0
  # cccs        =       0 # ccvs       =       0 # volt_srcs   =       1
  # curr_srcs   =       0 # diodes     =       0 # bjts        =       0
  # jfets       =       0 # mosfets    =       0 # U elements  =       0
  # T elements  =       0 # W elements =       0 # B elements  =       0
  # S elements  =       0 # P elements =       0 # va device   =      34
  # vector_srcs =       0 # N elements =       0


  ******  Runtime Statistics (seconds)  ******

  analysis           time    # points   tot. iter  conv.iter
  op point           0.06           1          25
  transient          6.14        1001        3191        1095 rev=         1
  readin             4.77
  errchk             0.09
  setup              0.00
  output             0.00


           peak memory used        125.73 megabytes
           total cpu time           11.06 seconds
           total elapsed time       18.61 seconds
           job started at     21:16:46 08/22/2014
           job ended   at     21:17:04 08/22/2014


 lic: Release hspice token(s) 
 lic: total license checkout elapse time:        0.21(s)
